
     RDKit          3D

 19 19  0  0  0  0  0  0  0  0999 V2000
    1.4901   -0.8562   -0.3108 C   0  0  0  0  0  0  0  0  0  0  0  0
    0.6660    0.4110   -0.0166 C   0  0  0  0  0  0  0  0  0  0  0  0
    1.5253    1.6636   -0.0424 C   0  0  0  0  0  0  0  0  0  0  0  0
    1.8225    2.2666    0.9678 O   0  0  0  0  0  0  0  0  0  0  0  0
    2.0022    2.1219   -1.3872 C   0  0  0  0  0  0  0  0  0  0  0  0
    2.1584    3.5976   -1.6094 C   0  0  0  0  0  0  0  0  0  0  0  0
    3.4004    2.7599   -1.4421 C   0  0  0  0  0  0  0  0  0  0  0  0
    4.2180    2.4732   -2.6469 C   0  0  0  0  0  0  0  0  0  0  0  0
    3.7600    2.3151   -3.7547 O   0  0  0  0  0  0  0  0  0  0  0  0
    2.2763   -0.9912    0.4379 H   0  0  0  0  0  0  0  0  0  0  0  0
    0.8473   -1.7404   -0.2902 H   0  0  0  0  0  0  0  0  0  0  0  0
    1.9645   -0.8114   -1.2959 H   0  0  0  0  0  0  0  0  0  0  0  0
   -0.1308    0.5099   -0.7644 H   0  0  0  0  0  0  0  0  0  0  0  0
    0.2052    0.3470    0.9722 H   0  0  0  0  0  0  0  0  0  0  0  0
    1.7422    1.5255   -2.2541 H   0  0  0  0  0  0  0  0  0  0  0  0
    1.9577    3.9671   -2.6081 H   0  0  0  0  0  0  0  0  0  0  0  0
    1.8975    4.2419   -0.7782 H   0  0  0  0  0  0  0  0  0  0  0  0
    3.9164    2.8314   -0.4916 H   0  0  0  0  0  0  0  0  0  0  0  0
    5.3134    2.4123   -2.4682 H   0  0  0  0  0  0  0  0  0  0  0  0
  1  2  1  0
  2  3  1  0
  3  4  2  0
  3  5  1  0
  5  6  1  0
  6  7  1  0
  7  8  1  0
  8  9  2  0
  7  5  1  0
  1 10  1  0
  1 11  1  0
  1 12  1  0
  2 13  1  0
  2 14  1  0
  5 15  1  0
  6 16  1  0
  6 17  1  0
  7 18  1  0
  8 19  1  0
M  END
$$$$
