
     RDKit          3D

 19 21  0  0  0  0  0  0  0  0999 V2000
    1.4371    0.5543    0.0917 O   0  0  0  0  0  0  0  0  0  0  0  0
    0.3616   -0.1695    0.6840 C   0  0  0  0  0  0  0  0  0  0  0  0
   -0.8518    0.7140    0.9296 C   0  0  0  0  0  0  0  0  0  0  0  0
   -0.8913    1.6550    2.1619 C   0  0  0  0  0  0  0  0  0  0  0  0
   -2.4552    1.6451    2.1915 C   0  0  0  0  0  0  0  0  0  0  0  0
   -2.5290    1.2917    3.6902 C   0  0  0  0  0  0  0  0  0  0  0  0
   -1.3330    0.4903    3.1394 C   0  0  0  0  0  0  0  0  0  0  0  0
   -0.5366   -0.4288    3.7995 O   0  0  0  0  0  0  0  0  0  0  0  0
   -2.0354    0.1907    1.7781 C   0  0  0  0  0  0  0  0  0  0  0  0
    1.7179    1.2219    0.7254 H   0  0  0  0  0  0  0  0  0  0  0  0
    0.1078   -0.9544   -0.0378 H   0  0  0  0  0  0  0  0  0  0  0  0
    0.6725   -0.6637    1.6137 H   0  0  0  0  0  0  0  0  0  0  0  0
   -1.1492    1.2001   -0.0078 H   0  0  0  0  0  0  0  0  0  0  0  0
   -0.2604    2.5113    2.4125 H   0  0  0  0  0  0  0  0  0  0  0  0
   -3.0972    2.3025    1.6104 H   0  0  0  0  0  0  0  0  0  0  0  0
   -2.3059    2.0987    4.3969 H   0  0  0  0  0  0  0  0  0  0  0  0
   -3.3979    0.7127    4.0190 H   0  0  0  0  0  0  0  0  0  0  0  0
   -0.1373    0.0051    4.5616 H   0  0  0  0  0  0  0  0  0  0  0  0
   -2.7182   -0.6382    1.5839 H   0  0  0  0  0  0  0  0  0  0  0  0
  1  2  1  0
  2  3  1  0
  3  4  1  0
  4  5  1  0
  5  6  1  0
  6  7  1  0
  7  8  1  0
  7  9  1  0
  9  3  1  0
  7  4  1  0
  9  5  1  0
  1 10  1  0
  2 11  1  0
  2 12  1  0
  3 13  1  0
  4 14  1  0
  5 15  1  0
  6 16  1  0
  6 17  1  0
  8 18  1  0
  9 19  1  0
M  END
$$$$
