gdb 4831	3.5275457	1.3603167	1.1702642	2.3742	74.5	-0.22972	0.07305	0.30277	1098.0454	0.154782	-422.454611	-422.446214	-422.44527	-422.487483	31.968
 OpenBabel02181911413D

 19 21  0  0  1  0  0  0  0  0999 V2000
    1.4369   -0.0547   -0.1825 C   0  0  0  0  0  0  0  0  0  0  0  0
    0.0460    0.1359   -0.0304 O   0  0  0  0  0  0  0  0  0  0  0  0
   -0.3525    0.8619    1.1182 C   0  0  1  0  0  0  0  0  0  0  0  0
    0.0874    2.3189    1.0735 C   0  0  0  0  0  0  0  0  0  0  0  0
   -1.8223    0.5567    1.4564 C   0  0  1  0  0  0  0  0  0  0  0  0
   -1.4537   -0.8207    2.0924 C   0  0  2  0  0  0  0  0  0  0  0  0
   -2.1726   -0.5729    3.3385 O   0  0  0  0  0  0  0  0  0  0  0  0
   -1.5747    0.7090    2.9893 C   0  0  1  0  0  0  0  0  0  0  0  0
   -0.2407    0.0923    2.4621 C   0  0  2  0  0  0  0  0  0  0  0  0
    1.8911   -0.5053    0.7123 H   0  0  0  0  0  0  0  0  0  0  0  0
    1.5722   -0.7388   -1.0239 H   0  0  0  0  0  0  0  0  0  0  0  0
    1.9695    0.8799   -0.4078 H   0  0  0  0  0  0  0  0  0  0  0  0
   -0.3413    2.8834    1.9066 H   0  0  0  0  0  0  0  0  0  0  0  0
    1.1755    2.4182    1.1366 H   0  0  0  0  0  0  0  0  0  0  0  0
   -0.2411    2.7830    0.1381 H   0  0  0  0  0  0  0  0  0  0  0  0
   -2.7273    0.8064    0.9036 H   0  0  0  0  0  0  0  0  0  0  0  0
   -1.4758   -1.8186    1.6616 H   0  0  0  0  0  0  0  0  0  0  0  0
   -1.7415    1.5601    3.6475 H   0  0  0  0  0  0  0  0  0  0  0  0
    0.6278   -0.1810    3.0612 H   0  0  0  0  0  0  0  0  0  0  0  0
  1  2  1  0  0  0  0
  1 10  1  0  0  0  0
  3  2  1  6  0  0  0
  3  5  1  0  0  0  0
  3  9  1  0  0  0  0
  4  3  1  0  0  0  0
  4 14  1  0  0  0  0
  4 13  1  0  0  0  0
  5 16  1  6  0  0  0
  5  6  1  0  0  0  0
  5  8  1  0  0  0  0
  6 17  1  6  0  0  0
  6  9  1  0  0  0  0
  6  7  1  0  0  0  0
  8  7  1  0  0  0  0
  8 18  1  1  0  0  0
  9  8  1  0  0  0  0
  9 19  1  1  0  0  0
 11  1  1  0  0  0  0
 12  1  1  0  0  0  0
 15  4  1  0  0  0  0
M TOR 0 0 1 2 3
M TOR 1 0 1 2 4
M TOR 2 0 1 2 8
M TOR 3 1 2 3 12
M TOR 4 1 2 3 13
M TOR 5 1 2 3 14
M TOR 6 1 2 4 5
M TOR 7 1 2 4 7
M TOR 8 1 2 4 15
M TOR 9 1 2 8 5
M TOR 10 1 2 8 7
M TOR 11 1 2 8 18
M TOR 12 2 1 0 9
M TOR 13 2 1 0 10
M TOR 14 2 1 0 11
M TOR 15 2 4 5 6
M TOR 16 2 4 5 8
M TOR 17 2 4 5 16
M TOR 18 2 4 7 6
M TOR 19 2 4 7 8
M TOR 20 2 4 7 17
M TOR 21 2 8 5 6
M TOR 22 2 8 5 16
M TOR 23 2 8 7 6
M TOR 24 2 8 7 17
M TOR 25 3 2 4 5
M TOR 26 3 2 4 7
M TOR 27 3 2 4 15
M TOR 28 3 2 8 5
M TOR 29 3 2 8 7
M TOR 30 3 2 8 18
M TOR 31 4 2 3 12
M TOR 32 4 2 3 13
M TOR 33 4 2 3 14
M TOR 34 4 2 8 18
M TOR 35 4 5 6 7
M TOR 36 4 5 8 7
M TOR 37 4 5 8 18
M TOR 38 4 7 8 18
M TOR 39 5 4 7 17
M TOR 40 5 6 7 8
M TOR 41 5 6 7 17
M TOR 42 5 8 7 17
M TOR 43 6 5 4 15
M TOR 44 6 5 8 18
M TOR 45 6 7 4 15
M TOR 46 6 7 8 18
M TOR 47 7 4 5 16
M TOR 48 7 6 5 16
M TOR 49 7 8 5 16
M TOR 50 8 2 3 12
M TOR 51 8 2 3 13
M TOR 52 8 2 3 14
M TOR 53 8 2 4 15
M TOR 54 8 5 4 15
M TOR 55 8 7 4 15
M  END
$$$$
