gdb 2567	3.0732318	1.2314217	0.9652455	4.6083	78.32	-0.23731	0.00268	0.23998999999999998	1242.7017	0.157132	-422.591902	-422.583094	-422.58215	-422.625741	32.413
 OpenBabel02181911413D

 19 19  0  0  0  0  0  0  0  0999 V2000
    1.2955    0.5853    0.2533 C   0  0  0  0  0  0  0  0  0  0  0  0
   -0.1908    0.3728    0.2125 C   0  0  0  0  0  0  0  0  0  0  0  0
   -1.0341    1.1986   -0.4063 C   0  0  0  0  0  0  0  0  0  0  0  0
   -2.5293    0.9892   -0.4118 C   0  0  0  0  0  0  0  0  0  0  0  0
   -3.0595   -0.2637   -1.1066 C   0  0  0  0  0  0  0  0  0  0  0  0
   -3.9491   -0.2101   -1.9122 O   0  0  0  0  0  0  0  0  0  0  0  0
   -2.6147   -1.4892   -0.7310 O   0  0  0  0  0  0  0  0  0  0  0  0
   -1.3617   -1.8414   -0.1238 C   0  0  0  0  0  0  0  0  0  0  0  0
   -0.7447   -0.8691    0.8805 C   0  0  0  0  0  0  0  0  0  0  0  0
    1.6527    0.6603    1.2887 H   0  0  0  0  0  0  0  0  0  0  0  0
    1.8320   -0.2597   -0.1980 H   0  0  0  0  0  0  0  0  0  0  0  0
    1.5891    1.4955   -0.2757 H   0  0  0  0  0  0  0  0  0  0  0  0
   -0.6605    2.0808   -0.9183 H   0  0  0  0  0  0  0  0  0  0  0  0
   -2.9041    0.9493    0.6223 H   0  0  0  0  0  0  0  0  0  0  0  0
   -3.0389    1.8199   -0.8998 H   0  0  0  0  0  0  0  0  0  0  0  0
   -1.5742   -2.7964    0.3663 H   0  0  0  0  0  0  0  0  0  0  0  0
   -0.6451   -2.0321   -0.9328 H   0  0  0  0  0  0  0  0  0  0  0  0
   -1.4893   -0.6099    1.6454 H   0  0  0  0  0  0  0  0  0  0  0  0
    0.0528   -1.4140    1.3976 H   0  0  0  0  0  0  0  0  0  0  0  0
  1 10  1  0  0  0  0
  2  1  1  0  0  0  0
  2  9  1  0  0  0  0
  3  2  2  0  0  0  0
  4  3  1  0  0  0  0
  4 14  1  0  0  0  0
  5  7  1  0  0  0  0
  5  4  1  0  0  0  0
  6  5  2  0  0  0  0
  7  8  1  0  0  0  0
  8 16  1  0  0  0  0
  8  9  1  0  0  0  0
  9 19  1  0  0  0  0
  9 18  1  0  0  0  0
 11  1  1  0  0  0  0
 12  1  1  0  0  0  0
 13  3  1  0  0  0  0
 15  4  1  0  0  0  0
 17  8  1  0  0  0  0
M TOR 0 0 1 2 3
M TOR 1 0 1 2 12
M TOR 2 0 1 8 7
M TOR 3 0 1 8 17
M TOR 4 0 1 8 18
M TOR 5 1 2 3 4
M TOR 6 1 2 3 13
M TOR 7 1 2 3 14
M TOR 8 1 8 7 6
M TOR 9 1 8 7 15
M TOR 10 1 8 7 16
M TOR 11 2 1 0 9
M TOR 12 2 1 0 10
M TOR 13 2 1 0 11
M TOR 14 2 1 8 7
M TOR 15 2 1 8 17
M TOR 16 2 1 8 18
M TOR 17 2 3 4 5
M TOR 18 2 3 4 6
M TOR 19 3 2 1 8
M TOR 20 3 4 6 7
M TOR 21 4 3 2 12
M TOR 22 4 6 7 8
M TOR 23 4 6 7 15
M TOR 24 4 6 7 16
M TOR 25 5 4 3 13
M TOR 26 5 4 3 14
M TOR 27 5 4 6 7
M TOR 28 6 4 3 13
M TOR 29 6 4 3 14
M TOR 30 6 7 8 17
M TOR 31 6 7 8 18
M TOR 32 8 1 0 9
M TOR 33 8 1 0 10
M TOR 34 8 1 0 11
M TOR 35 8 1 2 12
M  END
$$$$
