gdb 402	3.0571661	1.5914517	1.3826869	0.6421	73.71	-0.23971	0.07768	0.31739	996.4371	0.158887	-422.529857	-422.522577	-422.521633	-422.56143	29.146
 OpenBabel02181911403D

 19 21  0  0  1  0  0  0  0  0999 V2000
    0.5069    0.7672   -0.6708 C   0  0  0  0  0  0  0  0  0  0  0  0
    0.1224   -0.2074    0.3065 O   0  0  0  0  0  0  0  0  0  0  0  0
    1.5084    0.1548    0.2061 C   0  0  2  0  0  0  0  0  0  0  0  0
    2.1330    0.9328    1.3624 C   0  0  0  0  0  0  0  0  0  0  0  0
    3.1124    0.0642    2.1987 C   0  0  0  0  0  0  0  0  0  0  0  0
    3.6655   -1.0625    1.3156 C   0  0  1  0  0  0  0  0  0  0  0  0
    2.5449   -2.0191    0.8608 C   0  0  0  0  0  0  0  0  0  0  0  0
    2.4074   -0.9774   -0.2647 C   0  0  2  0  0  0  0  0  0  0  0  0
    3.7895   -0.5693   -0.0574 O   0  0  0  0  0  0  0  0  0  0  0  0
    0.4241    0.4472   -1.7093 H   0  0  0  0  0  0  0  0  0  0  0  0
    0.1665    1.7836   -0.4732 H   0  0  0  0  0  0  0  0  0  0  0  0
    2.6955    1.7665    0.9328 H   0  0  0  0  0  0  0  0  0  0  0  0
    1.3380    1.3583    1.9803 H   0  0  0  0  0  0  0  0  0  0  0  0
    3.9259    0.6909    2.5766 H   0  0  0  0  0  0  0  0  0  0  0  0
    2.6166   -0.3758    3.0713 H   0  0  0  0  0  0  0  0  0  0  0  0
    4.6038   -1.4843    1.6841 H   0  0  0  0  0  0  0  0  0  0  0  0
    2.9325   -2.9705    0.4936 H   0  0  0  0  0  0  0  0  0  0  0  0
    1.6889   -2.1781    1.5190 H   0  0  0  0  0  0  0  0  0  0  0  0
    2.2041   -1.3047   -1.2872 H   0  0  0  0  0  0  0  0  0  0  0  0
  1 11  1  0  0  0  0
  1  3  1  0  0  0  0
  1  2  1  0  0  0  0
  3  2  1  1  0  0  0
  3  4  1  0  0  0  0
  4 13  1  0  0  0  0
  4  5  1  0  0  0  0
  5 14  1  0  0  0  0
  5 15  1  0  0  0  0
  6 16  1  1  0  0  0
  6  5  1  0  0  0  0
  7  6  1  0  0  0  0
  7 18  1  0  0  0  0
  8 19  1  6  0  0  0
  8  9  1  0  0  0  0
  8  3  1  0  0  0  0
  8  7  1  0  0  0  0
  9  6  1  0  0  0  0
 10  1  1  0  0  0  0
 12  4  1  0  0  0  0
 17  7  1  0  0  0  0
M TOR 0 0 1 2 3
M TOR 1 0 1 2 7
M TOR 2 0 2 3 4
M TOR 3 0 2 3 11
M TOR 4 0 2 3 12
M TOR 5 0 2 7 6
M TOR 6 0 2 7 8
M TOR 7 0 2 7 18
M TOR 8 1 2 0 9
M TOR 9 1 2 0 10
M TOR 10 1 2 3 4
M TOR 11 1 2 3 11
M TOR 12 1 2 3 12
M TOR 13 1 2 7 6
M TOR 14 1 2 7 8
M TOR 15 1 2 7 18
M TOR 16 2 3 4 5
M TOR 17 2 3 4 13
M TOR 18 2 3 4 14
M TOR 19 2 7 6 5
M TOR 20 2 7 6 16
M TOR 21 2 7 6 17
M TOR 22 2 7 8 5
M TOR 23 3 2 0 9
M TOR 24 3 2 0 10
M TOR 25 3 2 7 6
M TOR 26 3 2 7 8
M TOR 27 3 2 7 18
M TOR 28 3 4 5 6
M TOR 29 3 4 5 8
M TOR 30 3 4 5 15
M TOR 31 4 3 2 7
M TOR 32 4 5 6 7
M TOR 33 4 5 6 16
M TOR 34 4 5 6 17
M TOR 35 4 5 8 7
M TOR 36 5 4 3 11
M TOR 37 5 4 3 12
M TOR 38 5 6 7 8
M TOR 39 5 6 7 18
M TOR 40 5 8 7 18
M TOR 41 6 5 4 13
M TOR 42 6 5 4 14
M TOR 43 7 2 0 9
M TOR 44 7 2 0 10
M TOR 45 7 2 3 11
M TOR 46 7 2 3 12
M TOR 47 7 6 5 15
M TOR 48 7 8 5 15
M TOR 49 8 5 4 13
M TOR 50 8 5 4 14
M TOR 51 8 5 6 16
M TOR 52 8 5 6 17
M TOR 53 8 7 6 16
M TOR 54 8 7 6 17
M  END
$$$$
