
     RDKit          3D

 19 20  0  0  0  0  0  0  0  0999 V2000
    1.2043   -0.1627   -0.1505 C   0  0  0  0  0  0  0  0  0  0  0  0
   -0.1450    0.1511    0.1285 O   0  0  0  0  0  0  0  0  0  0  0  0
   -0.3393    0.8185    1.3436 C   0  0  0  0  0  0  0  0  0  0  0  0
   -0.2688    2.4061    1.3385 C   0  0  0  0  0  0  0  0  0  0  0  0
   -1.6417    2.3623    0.5897 C   0  0  0  0  0  0  0  0  0  0  0  0
   -1.8610    1.1442    1.5598 C   0  0  0  0  0  0  0  0  0  0  0  0
   -2.8496    0.1869    1.4059 O   0  0  0  0  0  0  0  0  0  0  0  0
   -1.7683    1.8294    2.9188 C   0  0  0  0  0  0  0  0  0  0  0  0
   -0.7242    2.6542    2.7756 C   0  0  0  0  0  0  0  0  0  0  0  0
    1.6467   -0.7749    0.6494 H   0  0  0  0  0  0  0  0  0  0  0  0
    1.2196   -0.7315   -1.0830 H   0  0  0  0  0  0  0  0  0  0  0  0
    1.8172    0.7410   -0.2753 H   0  0  0  0  0  0  0  0  0  0  0  0
    0.1874    0.3148    2.1661 H   0  0  0  0  0  0  0  0  0  0  0  0
    0.5892    2.9493    0.9480 H   0  0  0  0  0  0  0  0  0  0  0  0
   -2.3048    3.2209    0.7108 H   0  0  0  0  0  0  0  0  0  0  0  0
   -1.5496    2.0628   -0.4567 H   0  0  0  0  0  0  0  0  0  0  0  0
   -2.6442   -0.3014    0.6000 H   0  0  0  0  0  0  0  0  0  0  0  0
   -2.4015    1.6181    3.7681 H   0  0  0  0  0  0  0  0  0  0  0  0
   -0.2586    3.3128    3.4947 H   0  0  0  0  0  0  0  0  0  0  0  0
  1  2  1  0
  2  3  1  0
  3  4  1  0
  4  5  1  0
  5  6  1  0
  6  7  1  0
  6  8  1  0
  8  9  2  0
  6  3  1  0
  9  4  1  0
  1 10  1  0
  1 11  1  0
  1 12  1  0
  3 13  1  0
  4 14  1  0
  5 15  1  0
  5 16  1  0
  7 17  1  0
  8 18  1  0
  9 19  1  0
M  END
$$$$
