
     RDKit          3D

 19 19  0  0  0  0  0  0  0  0999 V2000
   -1.8396    0.5293    3.1821 C   0  0  0  0  0  0  0  0  0  0  0  0
   -2.1465   -0.1645    1.8425 C   0  0  0  0  0  0  0  0  0  0  0  0
   -3.5866    0.1327    1.3867 C   0  0  0  0  0  0  0  0  0  0  0  0
   -1.9453   -1.5736    1.9581 O   0  0  0  0  0  0  0  0  0  0  0  0
   -1.1645    0.2690    0.7910 C   0  0  0  0  0  0  0  0  0  0  0  0
   -0.2471   -0.3976    0.0429 C   0  0  0  0  0  0  0  0  0  0  0  0
    0.3852    0.5870   -0.7884 C   0  0  0  0  0  0  0  0  0  0  0  0
   -0.1971    1.7725   -0.4802 C   0  0  0  0  0  0  0  0  0  0  0  0
   -1.1464    1.5977    0.4828 O   0  0  0  0  0  0  0  0  0  0  0  0
   -2.5655    0.2228    3.9444 H   0  0  0  0  0  0  0  0  0  0  0  0
   -0.8377    0.2552    3.5216 H   0  0  0  0  0  0  0  0  0  0  0  0
   -1.8911    1.6166    3.0809 H   0  0  0  0  0  0  0  0  0  0  0  0
   -4.3012   -0.1713    2.1608 H   0  0  0  0  0  0  0  0  0  0  0  0
   -3.7249    1.2003    1.1966 H   0  0  0  0  0  0  0  0  0  0  0  0
   -3.8075   -0.4188    0.4694 H   0  0  0  0  0  0  0  0  0  0  0  0
   -2.5620   -1.8979    2.6221 H   0  0  0  0  0  0  0  0  0  0  0  0
   -0.0515   -1.4558    0.0837 H   0  0  0  0  0  0  0  0  0  0  0  0
    1.1667    0.4259   -1.5145 H   0  0  0  0  0  0  0  0  0  0  0  0
   -0.0672    2.7838   -0.8278 H   0  0  0  0  0  0  0  0  0  0  0  0
  1  2  1  0
  2  3  1  0
  2  4  1  0
  2  5  1  0
  5  6  2  0
  6  7  1  0
  7  8  2  0
  8  9  1  0
  9  5  1  0
  1 10  1  0
  1 11  1  0
  1 12  1  0
  3 13  1  0
  3 14  1  0
  3 15  1  0
  4 16  1  0
  6 17  1  0
  7 18  1  0
  8 19  1  0
M  END
$$$$
