gdb 1092	3.0087176	1.4127559	1.128468	2.8796	76.17	-0.23626	-0.01141	0.22485	1127.7217	0.156414	-422.569263	-422.560638	-422.559694	-422.602741	32.171
 OpenBabel02181911403D

 19 20  0  0  1  0  0  0  0  0999 V2000
   -3.4102   -1.3009   -3.9697 C   0  0  0  0  0  0  0  0  0  0  0  0
   -2.4799   -1.0095   -2.8134 C   0  0  0  0  0  0  0  0  0  0  0  0
   -2.5226   -1.6158   -1.7627 O   0  0  0  0  0  0  0  0  0  0  0  0
   -1.4860    0.0875   -3.0082 C   0  0  2  0  0  0  0  0  0  0  0  0
   -0.2000    0.0904   -2.2042 C   0  0  0  0  0  0  0  0  0  0  0  0
   -1.2467    1.1359   -1.9331 C   0  0  1  0  0  0  0  0  0  0  0  0
   -1.1603    2.4521   -2.6868 C   0  0  0  0  0  0  0  0  0  0  0  0
   -0.9356    2.0079   -4.1502 C   0  0  0  0  0  0  0  0  0  0  0  0
   -1.4838    0.6926   -4.2746 O   0  0  0  0  0  0  0  0  0  0  0  0
   -4.0968   -2.1007   -3.6910 H   0  0  0  0  0  0  0  0  0  0  0  0
   -3.9638   -0.3980   -4.2465 H   0  0  0  0  0  0  0  0  0  0  0  0
   -2.8317   -1.5856   -4.8548 H   0  0  0  0  0  0  0  0  0  0  0  0
   -0.1128   -0.7087   -1.4776 H   0  0  0  0  0  0  0  0  0  0  0  0
    0.7154    0.3641   -2.7178 H   0  0  0  0  0  0  0  0  0  0  0  0
   -1.8039    1.0810   -1.0059 H   0  0  0  0  0  0  0  0  0  0  0  0
   -2.1044    2.9956   -2.5797 H   0  0  0  0  0  0  0  0  0  0  0  0
   -0.3554    3.1068   -2.3395 H   0  0  0  0  0  0  0  0  0  0  0  0
   -1.4317    2.6495   -4.8832 H   0  0  0  0  0  0  0  0  0  0  0  0
    0.1356    1.9875   -4.3907 H   0  0  0  0  0  0  0  0  0  0  0  0
  1 10  1  0  0  0  0
  1  2  1  0  0  0  0
  2  3  2  0  0  0  0
  4  2  1  1  0  0  0
  4  5  1  0  0  0  0
  4  6  1  0  0  0  0
  5  6  1  0  0  0  0
  5 13  1  0  0  0  0
  6 15  1  1  0  0  0
  7 16  1  0  0  0  0
  7 17  1  0  0  0  0
  7  6  1  0  0  0  0
  8  7  1  0  0  0  0
  9  8  1  0  0  0  0
  9  4  1  0  0  0  0
 11  1  1  0  0  0  0
 12  1  1  0  0  0  0
 14  5  1  0  0  0  0
 18  8  1  0  0  0  0
 19  8  1  0  0  0  0
M TOR 0 0 1 3 4
M TOR 1 0 1 3 5
M TOR 2 0 1 3 8
M TOR 3 1 3 4 5
M TOR 4 1 3 4 12
M TOR 5 1 3 4 13
M TOR 6 1 3 5 6
M TOR 7 1 3 5 14
M TOR 8 1 3 8 7
M TOR 9 2 1 0 9
M TOR 10 2 1 0 10
M TOR 11 2 1 0 11
M TOR 12 2 1 3 4
M TOR 13 2 1 3 5
M TOR 14 2 1 3 8
M TOR 15 3 1 0 9
M TOR 16 3 1 0 10
M TOR 17 3 1 0 11
M TOR 18 3 4 5 6
M TOR 19 3 4 5 14
M TOR 20 3 5 4 12
M TOR 21 3 5 4 13
M TOR 22 3 5 6 7
M TOR 23 3 5 6 15
M TOR 24 3 5 6 16
M TOR 25 3 8 7 6
M TOR 26 3 8 7 17
M TOR 27 3 8 7 18
M TOR 28 4 3 8 7
M TOR 29 4 5 3 8
M TOR 30 4 5 6 7
M TOR 31 4 5 6 15
M TOR 32 4 5 6 16
M TOR 33 5 3 8 7
M TOR 34 5 6 7 8
M TOR 35 5 6 7 17
M TOR 36 5 6 7 18
M TOR 37 6 5 3 8
M TOR 38 6 5 4 12
M TOR 39 6 5 4 13
M TOR 40 7 6 5 14
M TOR 41 8 3 4 12
M TOR 42 8 3 4 13
M TOR 43 8 3 5 14
M TOR 44 8 7 6 15
M TOR 45 8 7 6 16
M  END
$$$$
