
     RDKit          3D

 19 19  0  0  0  0  0  0  0  0999 V2000
    1.0284   -0.0078   -0.7368 C   0  0  0  0  0  0  0  0  0  0  0  0
    0.7076    0.0893    0.7473 C   0  0  0  0  0  0  0  0  0  0  0  0
    0.9069    1.4934    1.3568 C   0  0  0  0  0  0  0  0  0  0  0  0
    1.4772    1.2316    2.6305 O   0  0  0  0  0  0  0  0  0  0  0  0
    2.2874    0.0861    2.4487 C   0  0  0  0  0  0  0  0  0  0  0  0
    2.4350   -0.6413    3.7756 C   0  0  0  0  0  0  0  0  0  0  0  0
    1.5873   -0.7382    1.5245 O   0  0  0  0  0  0  0  0  0  0  0  0
    3.6040    0.4699    1.8838 C   0  0  0  0  0  0  0  0  0  0  0  0
    4.6751    0.7824    1.4368 C   0  0  0  0  0  0  0  0  0  0  0  0
    0.9226   -1.0383   -1.0860 H   0  0  0  0  0  0  0  0  0  0  0  0
    0.3439    0.6209   -1.3174 H   0  0  0  0  0  0  0  0  0  0  0  0
    2.0542    0.3198   -0.9284 H   0  0  0  0  0  0  0  0  0  0  0  0
   -0.3142   -0.2651    0.9340 H   0  0  0  0  0  0  0  0  0  0  0  0
    1.5872    2.0978    0.7399 H   0  0  0  0  0  0  0  0  0  0  0  0
   -0.0251    2.0419    1.5068 H   0  0  0  0  0  0  0  0  0  0  0  0
    3.0052   -1.5611    3.6312 H   0  0  0  0  0  0  0  0  0  0  0  0
    2.9590   -0.0064    4.4932 H   0  0  0  0  0  0  0  0  0  0  0  0
    1.4402   -0.8824    4.1554 H   0  0  0  0  0  0  0  0  0  0  0  0
    5.6217    1.0567    1.0401 H   0  0  0  0  0  0  0  0  0  0  0  0
  1  2  1  0
  2  3  1  0
  3  4  1  0
  4  5  1  0
  5  6  1  0
  5  7  1  0
  5  8  1  0
  8  9  3  0
  7  2  1  0
  1 10  1  0
  1 11  1  0
  1 12  1  0
  2 13  1  0
  3 14  1  0
  3 15  1  0
  6 16  1  0
  6 17  1  0
  6 18  1  0
  9 19  1  0
M  END
$$$$
