gdb 2655	2.1513922	1.563547	1.1170328	3.333	78.04	-0.23474	-0.02562	0.20912	1160.2881	0.155142	-422.552084	-422.5429	-422.541956	-422.585913	34.029
 OpenBabel02181911413D

 19 20  0  0  1  0  0  0  0  0999 V2000
   -2.3524    2.9921    1.3366 C   0  0  0  0  0  0  0  0  0  0  0  0
   -1.1071    2.5056    0.6310 C   0  0  2  0  0  0  0  0  0  0  0  0
   -1.0409    2.4327   -0.8546 C   0  0  1  0  0  0  0  0  0  0  0  0
    0.1106    2.7160   -1.5707 O   0  0  0  0  0  0  0  0  0  0  0  0
   -1.1215    1.1322   -0.0484 C   0  0  2  0  0  0  0  0  0  0  0  0
   -2.1185   -0.0398   -0.0252 C   0  0  0  0  0  0  0  0  0  0  0  0
   -0.9029   -1.0321   -0.0344 C   0  0  0  0  0  0  0  0  0  0  0  0
    0.0251    0.1934   -0.0846 C   0  0  0  0  0  0  0  0  0  0  0  0
    1.2155    0.3675   -0.2024 O   0  0  0  0  0  0  0  0  0  0  0  0
   -2.4586    2.5339    2.3256 H   0  0  0  0  0  0  0  0  0  0  0  0
   -2.3184    4.0783    1.4709 H   0  0  0  0  0  0  0  0  0  0  0  0
   -3.2537    2.7551    0.7622 H   0  0  0  0  0  0  0  0  0  0  0  0
   -0.1636    2.7295    1.1261 H   0  0  0  0  0  0  0  0  0  0  0  0
   -1.9311    2.7136   -1.4120 H   0  0  0  0  0  0  0  0  0  0  0  0
    0.8378    2.1936   -1.1967 H   0  0  0  0  0  0  0  0  0  0  0  0
   -2.7386   -0.0979    0.8723 H   0  0  0  0  0  0  0  0  0  0  0  0
   -2.7622   -0.1159   -0.9043 H   0  0  0  0  0  0  0  0  0  0  0  0
   -0.7867   -1.6329    0.8720 H   0  0  0  0  0  0  0  0  0  0  0  0
   -0.8232   -1.6926   -0.9020 H   0  0  0  0  0  0  0  0  0  0  0  0
  1 11  1  0  0  0  0
  1 10  1  0  0  0  0
  2 13  1  1  0  0  0
  2  1  1  0  0  0  0
  3 14  1  6  0  0  0
  3  5  1  0  0  0  0
  3  2  1  0  0  0  0
  4 15  1  0  0  0  0
  4  3  1  0  0  0  0
  5  8  1  1  0  0  0
  5  6  1  0  0  0  0
  5  2  1  0  0  0  0
  6 16  1  0  0  0  0
  7  6  1  0  0  0  0
  7 18  1  0  0  0  0
  8  7  1  0  0  0  0
  9  8  2  0  0  0  0
 12  1  1  0  0  0  0
 17  6  1  0  0  0  0
 19  7  1  0  0  0  0
M TOR 0 0 1 2 3
M TOR 1 0 1 2 4
M TOR 2 0 1 2 13
M TOR 3 0 1 4 5
M TOR 4 0 1 4 7
M TOR 5 1 2 3 14
M TOR 6 1 2 4 5
M TOR 7 1 2 4 7
M TOR 8 1 4 2 3
M TOR 9 1 4 2 13
M TOR 10 1 4 5 6
M TOR 11 1 4 5 15
M TOR 12 1 4 5 16
M TOR 13 1 4 7 6
M TOR 14 1 4 7 8
M TOR 15 2 1 0 9
M TOR 16 2 1 0 10
M TOR 17 2 1 0 11
M TOR 18 2 4 1 12
M TOR 19 2 4 5 6
M TOR 20 2 4 5 15
M TOR 21 2 4 5 16
M TOR 22 2 4 7 6
M TOR 23 2 4 7 8
M TOR 24 3 2 1 12
M TOR 25 3 2 4 5
M TOR 26 3 2 4 7
M TOR 27 4 1 0 9
M TOR 28 4 1 0 10
M TOR 29 4 1 0 11
M TOR 30 4 2 3 14
M TOR 31 4 5 6 7
M TOR 32 4 5 6 17
M TOR 33 4 5 6 18
M TOR 34 4 7 6 17
M TOR 35 4 7 6 18
M TOR 36 5 4 1 12
M TOR 37 5 4 2 13
M TOR 38 5 4 7 8
M TOR 39 5 6 7 8
M TOR 40 7 4 1 12
M TOR 41 7 4 2 13
M TOR 42 7 4 5 15
M TOR 43 7 4 5 16
M TOR 44 7 6 5 15
M TOR 45 7 6 5 16
M TOR 46 8 7 6 17
M TOR 47 8 7 6 18
M  END
$$$$
