
     RDKit          3D

 19 20  0  0  0  0  0  0  0  0999 V2000
    1.3721   -0.1859    1.0967 C   0  0  0  0  0  0  0  0  0  0  0  0
    0.9520    0.2991   -0.2932 C   0  0  0  0  0  0  0  0  0  0  0  0
    1.6373   -0.4656   -1.4213 C   0  0  0  0  0  0  0  0  0  0  0  0
    1.3297   -1.8711   -1.3410 O   0  0  0  0  0  0  0  0  0  0  0  0
    0.6483   -2.1544   -2.5851 C   0  0  0  0  0  0  0  0  0  0  0  0
   -0.0824   -0.9761   -2.8366 O   0  0  0  0  0  0  0  0  0  0  0  0
    1.0782   -0.1223   -2.8477 C   0  0  0  0  0  0  0  0  0  0  0  0
    1.9908   -0.8354   -3.8367 C   0  0  0  0  0  0  0  0  0  0  0  0
    1.7142   -2.1306   -3.6804 C   0  0  0  0  0  0  0  0  0  0  0  0
    1.1409   -1.2474    1.2168 H   0  0  0  0  0  0  0  0  0  0  0  0
    2.4490   -0.0571    1.2542 H   0  0  0  0  0  0  0  0  0  0  0  0
    0.8513    0.3715    1.8811 H   0  0  0  0  0  0  0  0  0  0  0  0
   -0.1306    0.1948   -0.4212 H   0  0  0  0  0  0  0  0  0  0  0  0
    1.1924    1.3647   -0.4077 H   0  0  0  0  0  0  0  0  0  0  0  0
    2.7258   -0.3348   -1.3755 H   0  0  0  0  0  0  0  0  0  0  0  0
    0.0074   -3.0244   -2.4603 H   0  0  0  0  0  0  0  0  0  0  0  0
    0.8083    0.9165   -3.0254 H   0  0  0  0  0  0  0  0  0  0  0  0
    2.7736   -0.3674   -4.4170 H   0  0  0  0  0  0  0  0  0  0  0  0
    2.2044   -2.9962   -4.1024 H   0  0  0  0  0  0  0  0  0  0  0  0
  1  2  1  0
  2  3  1  0
  3  4  1  0
  4  5  1  0
  5  6  1  0
  6  7  1  0
  7  8  1  0
  8  9  2  0
  7  3  1  0
  9  5  1  0
  1 10  1  0
  1 11  1  0
  1 12  1  0
  2 13  1  0
  2 14  1  0
  3 15  1  0
  5 16  1  0
  7 17  1  0
  8 18  1  0
  9 19  1  0
M  END
$$$$
