
     RDKit          3D

 19 21  0  0  0  0  0  0  0  0999 V2000
   -0.3082    2.9712   -0.8095 C   0  0  0  0  0  0  0  0  0  0  0  0
    0.7404    2.2949    0.0099 C   0  0  0  0  0  0  0  0  0  0  0  0
    2.0905    2.7599   -0.0444 O   0  0  0  0  0  0  0  0  0  0  0  0
    1.4574    2.6599    1.2330 C   0  0  0  0  0  0  0  0  0  0  0  0
    1.4791    1.1431    1.6918 C   0  0  0  0  0  0  0  0  0  0  0  0
    1.4758    0.6345    3.0944 C   0  0  0  0  0  0  0  0  0  0  0  0
    2.1435    0.4009    0.6637 O   0  0  0  0  0  0  0  0  0  0  0  0
    0.7718    0.7620    0.4627 C   0  0  0  0  0  0  0  0  0  0  0  0
   -0.2250   -0.2973    0.1252 C   0  0  0  0  0  0  0  0  0  0  0  0
   -1.3110    2.7215   -0.4473 H   0  0  0  0  0  0  0  0  0  0  0  0
   -0.1822    4.0562   -0.7653 H   0  0  0  0  0  0  0  0  0  0  0  0
   -0.2444    2.6623   -1.8591 H   0  0  0  0  0  0  0  0  0  0  0  0
    1.4106    3.5446    1.8582 H   0  0  0  0  0  0  0  0  0  0  0  0
    1.2424   -0.4334    3.1181 H   0  0  0  0  0  0  0  0  0  0  0  0
    2.4565    0.7795    3.5618 H   0  0  0  0  0  0  0  0  0  0  0  0
    0.7341    1.1678    3.6988 H   0  0  0  0  0  0  0  0  0  0  0  0
   -1.2482    0.0694    0.2586 H   0  0  0  0  0  0  0  0  0  0  0  0
   -0.1162   -0.6169   -0.9175 H   0  0  0  0  0  0  0  0  0  0  0  0
   -0.0839   -1.1737    0.7636 H   0  0  0  0  0  0  0  0  0  0  0  0
  1  2  1  0
  2  3  1  0
  3  4  1  0
  4  5  1  0
  5  6  1  0
  5  7  1  0
  7  8  1  0
  8  9  1  0
  4  2  1  0
  8  5  1  0
  8  2  1  0
  1 10  1  0
  1 11  1  0
  1 12  1  0
  4 13  1  0
  6 14  1  0
  6 15  1  0
  6 16  1  0
  9 17  1  0
  9 18  1  0
  9 19  1  0
M  END
$$$$
