
     RDKit          3D

 19 21  0  0  0  0  0  0  0  0999 V2000
   -1.8445    0.2359   -0.9583 C   0  0  0  0  0  0  0  0  0  0  0  0
   -0.9417    1.0708    0.0119 C   0  0  0  0  0  0  0  0  0  0  0  0
    0.1919    0.3323    0.7101 C   0  0  0  0  0  0  0  0  0  0  0  0
    1.0127   -0.3709   -0.2068 O   0  0  0  0  0  0  0  0  0  0  0  0
    1.6678    0.4837   -1.1225 C   0  0  0  0  0  0  0  0  0  0  0  0
    0.7110    1.3303   -1.9460 C   0  0  0  0  0  0  0  0  0  0  0  0
   -0.1759    0.5442   -2.7811 O   0  0  0  0  0  0  0  0  0  0  0  0
   -1.3477    1.0936   -2.1448 C   0  0  0  0  0  0  0  0  0  0  0  0
   -0.4825    1.9535   -1.1878 C   0  0  0  0  0  0  0  0  0  0  0  0
   -1.5876   -0.8210   -1.0511 H   0  0  0  0  0  0  0  0  0  0  0  0
   -2.9134    0.3388   -0.7538 H   0  0  0  0  0  0  0  0  0  0  0  0
   -1.5211    1.6318    0.7500 H   0  0  0  0  0  0  0  0  0  0  0  0
    0.8005    1.0458    1.2942 H   0  0  0  0  0  0  0  0  0  0  0  0
   -0.1993   -0.4209    1.4019 H   0  0  0  0  0  0  0  0  0  0  0  0
    2.3659    1.1586   -0.5940 H   0  0  0  0  0  0  0  0  0  0  0  0
    2.2527   -0.1641   -1.7830 H   0  0  0  0  0  0  0  0  0  0  0  0
    1.2852    2.0437   -2.5534 H   0  0  0  0  0  0  0  0  0  0  0  0
   -2.0726    1.4753   -2.8677 H   0  0  0  0  0  0  0  0  0  0  0  0
   -0.5267    3.0374   -1.0960 H   0  0  0  0  0  0  0  0  0  0  0  0
  1  2  1  0
  2  3  1  0
  3  4  1  0
  4  5  1  0
  5  6  1  0
  6  7  1  0
  7  8  1  0
  8  9  1  0
  8  1  1  0
  9  2  1  0
  9  6  1  0
  1 10  1  0
  1 11  1  0
  2 12  1  0
  3 13  1  0
  3 14  1  0
  5 15  1  0
  5 16  1  0
  6 17  1  0
  8 18  1  0
  9 19  1  0
M  END
$$$$
