gdb 3452	2.3220188	1.8385631	1.1825557	2.2585	75.76	-0.25371	0.01184	0.26555	1071.0087	0.156597	-422.552077	-422.543596	-422.542652	-422.584829	32.759
 OpenBabel02181911413D

 19 20  0  0  1  0  0  0  0  0999 V2000
    0.9764   -0.6156   -0.8818 C   0  0  0  0  0  0  0  0  0  0  0  0
    1.1386    0.2913    0.3419 C   0  0  2  0  0  0  0  0  0  0  0  0
    2.0047    1.5166    0.1091 C   0  0  0  0  0  0  0  0  0  0  0  0
    2.8691    1.7385    1.0977 C   0  0  0  0  0  0  0  0  0  0  0  0
    2.7168    0.7289    2.2172 C   0  0  2  0  0  0  0  0  0  0  0  0
    3.9079    0.2141    2.7654 O   0  0  0  0  0  0  0  0  0  0  0  0
    1.8598   -0.3547    1.5309 C   0  0  1  0  0  0  0  0  0  0  0  0
    1.4939   -1.5983    2.2030 C   0  0  0  0  0  0  0  0  0  0  0  0
    2.5891   -1.5670    1.2704 O   0  0  0  0  0  0  0  0  0  0  0  0
    0.3640   -1.4928   -0.6514 H   0  0  0  0  0  0  0  0  0  0  0  0
    0.4839   -0.0696   -1.6926 H   0  0  0  0  0  0  0  0  0  0  0  0
    1.9470   -0.9677   -1.2381 H   0  0  0  0  0  0  0  0  0  0  0  0
    0.1380    0.6108    0.6720 H   0  0  0  0  0  0  0  0  0  0  0  0
    1.8874    2.1330   -0.7763 H   0  0  0  0  0  0  0  0  0  0  0  0
    3.5761    2.5571    1.1622 H   0  0  0  0  0  0  0  0  0  0  0  0
    2.1623    1.1797    3.0535 H   0  0  0  0  0  0  0  0  0  0  0  0
    4.1297   -0.5581    2.2254 H   0  0  0  0  0  0  0  0  0  0  0  0
    1.7832   -1.7450    3.2425 H   0  0  0  0  0  0  0  0  0  0  0  0
    0.6281   -2.1690    1.8710 H   0  0  0  0  0  0  0  0  0  0  0  0
  1 10  1  0  0  0  0
  1  2  1  0  0  0  0
  2 13  1  1  0  0  0
  2  7  1  0  0  0  0
  3  2  1  0  0  0  0
  3  4  2  0  0  0  0
  4 15  1  0  0  0  0
  4  5  1  0  0  0  0
  5  6  1  0  0  0  0
  5 16  1  1  0  0  0
  7  9  1  6  0  0  0
  7  8  1  0  0  0  0
  7  5  1  0  0  0  0
  8 18  1  0  0  0  0
  9  8  1  0  0  0  0
 11  1  1  0  0  0  0
 12  1  1  0  0  0  0
 14  3  1  0  0  0  0
 17  6  1  0  0  0  0
 19  8  1  0  0  0  0
M TOR 0 0 1 2 3
M TOR 1 0 1 2 13
M TOR 2 0 1 6 4
M TOR 3 0 1 6 7
M TOR 4 0 1 6 8
M TOR 5 1 2 3 4
M TOR 6 1 2 3 14
M TOR 7 1 6 4 3
M TOR 8 1 6 4 5
M TOR 9 1 6 4 15
M TOR 10 1 6 7 8
M TOR 11 1 6 7 17
M TOR 12 1 6 7 18
M TOR 13 2 1 0 9
M TOR 14 2 1 0 10
M TOR 15 2 1 0 11
M TOR 16 2 1 6 4
M TOR 17 2 1 6 7
M TOR 18 2 1 6 8
M TOR 19 2 3 4 5
M TOR 20 2 3 4 6
M TOR 21 2 3 4 15
M TOR 22 3 2 1 6
M TOR 23 3 2 1 12
M TOR 24 3 4 5 16
M TOR 25 3 4 6 7
M TOR 26 3 4 6 8
M TOR 27 4 3 2 13
M TOR 28 4 6 1 12
M TOR 29 4 6 7 8
M TOR 30 4 6 7 17
M TOR 31 4 6 7 18
M TOR 32 5 4 3 14
M TOR 33 5 4 6 7
M TOR 34 5 4 6 8
M TOR 35 6 1 0 9
M TOR 36 6 1 0 10
M TOR 37 6 1 0 11
M TOR 38 6 1 2 13
M TOR 39 6 4 3 14
M TOR 40 6 4 5 16
M TOR 41 6 8 7 17
M TOR 42 6 8 7 18
M TOR 43 7 6 1 12
M TOR 44 7 6 4 15
M TOR 45 8 6 1 12
M TOR 46 8 6 4 15
M  END
$$$$
