gdb 3979	2.9071977	1.345792	1.1483456	0.8809	77.68	-0.23929	0.00562	0.24491000000000002	1122.1167	0.157579	-422.542072	-422.533843	-422.532899	-422.574671	32.217
 OpenBabel02181911413D

 19 20  0  0  1  0  0  0  0  0999 V2000
   -0.0546    1.4119    0.1354 O   0  0  0  0  0  0  0  0  0  0  0  0
    0.0188    0.0162    0.0502 C   0  0  2  0  0  0  0  0  0  0  0  0
    0.3509   -0.7013   -1.3215 C   0  0  0  0  0  0  0  0  0  0  0  0
   -0.6929   -1.8043   -0.9521 C   0  0  2  0  0  0  0  0  0  0  0  0
   -1.9451   -2.1735   -1.8002 C   0  0  2  0  0  0  0  0  0  0  0  0
   -2.0874   -1.3894   -2.9724 O   0  0  0  0  0  0  0  0  0  0  0  0
   -3.1150   -1.9056   -0.7947 C   0  0  0  0  0  0  0  0  0  0  0  0
   -2.5703   -0.7778    0.0808 C   0  0  0  0  0  3  0  0  0  0  0  0
   -1.2394   -0.8229    0.0517 C   0  0  2  0  0  3  0  0  0  0  0  0
   -0.7575    1.7030   -0.4560 H   0  0  0  0  0  0  0  0  0  0  0  0
    0.7350   -0.2949    0.8180 H   0  0  0  0  0  0  0  0  0  0  0  0
    0.0147   -0.1014   -2.1716 H   0  0  0  0  0  0  0  0  0  0  0  0
    1.3870   -1.0073   -1.4797 H   0  0  0  0  0  0  0  0  0  0  0  0
   -0.2205   -2.6944   -0.5237 H   0  0  0  0  0  0  0  0  0  0  0  0
   -1.9252   -3.2083   -2.1524 H   0  0  0  0  0  0  0  0  0  0  0  0
   -2.2720   -0.4849   -2.6943 H   0  0  0  0  0  0  0  0  0  0  0  0
   -4.0287   -1.6370   -1.3363 H   0  0  0  0  0  0  0  0  0  0  0  0
   -3.3473   -2.8054   -0.2089 H   0  0  0  0  0  0  0  0  0  0  0  0
   -3.1954   -0.0435    0.5754 H   0  0  0  0  0  0  0  0  0  0  0  0
  2  9  1  0  0  0  0
  2  1  1  0  0  0  0
  2 11  1  1  0  0  0
  3  4  1  0  0  0  0
  3  2  1  0  0  0  0
  4 14  1  1  0  0  0
  4  9  1  0  0  0  0
  5 15  1  6  0  0  0
  5  4  1  0  0  0  0
  5  7  1  0  0  0  0
  6 16  1  0  0  0  0
  6  5  1  0  0  0  0
  7 18  1  0  0  0  0
  7  8  1  0  0  0  0
  8 19  1  0  0  0  0
  9  8  1  6  0  0  0
 10  1  1  0  0  0  0
 12  3  1  0  0  0  0
 13  3  1  0  0  0  0
 17  7  1  0  0  0  0
M TOR 0 0 1 2 3
M TOR 1 0 1 2 11
M TOR 2 0 1 2 12
M TOR 3 0 1 8 3
M TOR 4 0 1 8 7
M TOR 5 1 2 3 4
M TOR 6 1 2 3 8
M TOR 7 1 2 3 13
M TOR 8 1 8 3 4
M TOR 9 1 8 3 13
M TOR 10 1 8 7 6
M TOR 11 1 8 7 18
M TOR 12 2 1 0 9
M TOR 13 2 1 8 7
M TOR 14 2 3 4 5
M TOR 15 2 3 4 6
M TOR 16 2 3 4 14
M TOR 17 2 3 8 7
M TOR 18 3 2 1 10
M TOR 19 3 4 5 15
M TOR 20 3 4 6 7
M TOR 21 3 4 6 16
M TOR 22 3 4 6 17
M TOR 23 3 8 1 10
M TOR 24 3 8 7 6
M TOR 25 3 8 7 18
M TOR 26 4 3 2 11
M TOR 27 4 3 2 12
M TOR 28 4 3 8 7
M TOR 29 4 6 7 8
M TOR 30 4 6 7 18
M TOR 31 5 4 3 8
M TOR 32 5 4 3 13
M TOR 33 5 4 6 7
M TOR 34 5 4 6 16
M TOR 35 5 4 6 17
M TOR 36 6 4 3 8
M TOR 37 6 4 3 13
M TOR 38 6 4 5 15
M TOR 39 7 6 4 14
M TOR 40 7 8 1 10
M TOR 41 7 8 3 13
M TOR 42 8 1 0 9
M TOR 43 8 1 2 11
M TOR 44 8 1 2 12
M TOR 45 8 3 2 11
M TOR 46 8 3 2 12
M TOR 47 8 3 4 14
M TOR 48 8 7 6 16
M TOR 49 8 7 6 17
M  END
$$$$
