gdb 4861	3.315523	1.0493384	1.0114069	3.7043	78.1	-0.23746	-0.04474	0.19272	1253.0492	0.156025	-422.596186	-422.587015	-422.586071	-422.630346	34.068
 OpenBabel02181911413D

 19 19  0  0  1  0  0  0  0  0999 V2000
   -3.1250   -1.0702    1.2518 C   0  0  0  0  0  0  0  0  0  0  0  0
   -2.3455   -0.6303   -0.0020 C   0  0  2  0  0  0  0  0  0  0  0  0
   -3.1316   -1.0192   -1.2768 C   0  0  0  0  0  0  0  0  0  0  0  0
   -4.4003   -0.3935   -1.3703 O   0  0  0  0  0  0  0  0  0  0  0  0
   -0.9118   -1.2108   -0.0396 C   0  0  0  0  0  0  0  0  0  0  0  0
    0.0405   -0.0030    0.0275 C   0  0  0  0  0  0  0  0  0  0  0  0
    1.2476   -0.0546    0.0542 O   0  0  0  0  0  0  0  0  0  0  0  0
   -0.8108    1.2087    0.0443 C   0  0  0  0  0  0  0  0  0  0  0  0
   -2.1033    0.8676    0.0227 C   0  0  0  0  0  0  0  0  0  0  0  0
   -3.3012   -2.1521    1.2398 H   0  0  0  0  0  0  0  0  0  0  0  0
   -2.5693   -0.8292    2.1627 H   0  0  0  0  0  0  0  0  0  0  0  0
   -4.0939   -0.5636    1.3161 H   0  0  0  0  0  0  0  0  0  0  0  0
   -2.5702   -0.6954   -2.1598 H   0  0  0  0  0  0  0  0  0  0  0  0
   -3.2193   -2.1157   -1.3236 H   0  0  0  0  0  0  0  0  0  0  0  0
   -5.0073   -0.8511   -0.7817 H   0  0  0  0  0  0  0  0  0  0  0  0
   -0.7032   -1.8904    0.7914 H   0  0  0  0  0  0  0  0  0  0  0  0
   -0.7068   -1.7688   -0.9604 H   0  0  0  0  0  0  0  0  0  0  0  0
   -0.3977    2.2092    0.0668 H   0  0  0  0  0  0  0  0  0  0  0  0
   -2.9414    1.5560    0.0153 H   0  0  0  0  0  0  0  0  0  0  0  0
  1 12  1  0  0  0  0
  1 11  1  0  0  0  0
  2  3  1  6  0  0  0
  2  9  1  0  0  0  0
  2  1  1  0  0  0  0
  4  3  1  0  0  0  0
  4 15  1  0  0  0  0
  5  2  1  0  0  0  0
  5  6  1  0  0  0  0
  5 16  1  0  0  0  0
  6  8  1  0  0  0  0
  6  7  2  0  0  0  0
  8 18  1  0  0  0  0
  9  8  2  0  0  0  0
 10  1  1  0  0  0  0
 13  3  1  0  0  0  0
 14  3  1  0  0  0  0
 17  5  1  0  0  0  0
 19  9  1  0  0  0  0
M TOR 0 0 1 2 3
M TOR 1 0 1 2 12
M TOR 2 0 1 2 13
M TOR 3 0 1 4 5
M TOR 4 0 1 4 15
M TOR 5 0 1 4 16
M TOR 6 0 1 8 7
M TOR 7 0 1 8 18
M TOR 8 1 2 3 14
M TOR 9 1 4 5 6
M TOR 10 1 4 5 7
M TOR 11 1 8 7 5
M TOR 12 1 8 7 17
M TOR 13 2 1 0 9
M TOR 14 2 1 0 10
M TOR 15 2 1 0 11
M TOR 16 2 1 4 5
M TOR 17 2 1 4 15
M TOR 18 2 1 4 16
M TOR 19 2 1 8 7
M TOR 20 2 1 8 18
M TOR 21 3 2 1 4
M TOR 22 3 2 1 8
M TOR 23 4 1 0 9
M TOR 24 4 1 0 10
M TOR 25 4 1 0 11
M TOR 26 4 1 2 12
M TOR 27 4 1 2 13
M TOR 28 4 1 8 7
M TOR 29 4 1 8 18
M TOR 30 4 5 7 8
M TOR 31 4 5 7 17
M TOR 32 5 4 1 8
M TOR 33 5 7 8 18
M TOR 34 6 5 4 15
M TOR 35 6 5 4 16
M TOR 36 6 5 7 8
M TOR 37 6 5 7 17
M TOR 38 7 5 4 15
M TOR 39 7 5 4 16
M TOR 40 8 1 0 9
M TOR 41 8 1 0 10
M TOR 42 8 1 0 11
M TOR 43 8 1 2 12
M TOR 44 8 1 2 13
M TOR 45 8 1 4 15
M TOR 46 8 1 4 16
M  END
$$$$
