
     RDKit          3D

 19 19  0  0  0  0  0  0  0  0999 V2000
   -3.9600    1.7180   -0.5691 O   0  0  0  0  0  0  0  0  0  0  0  0
   -3.2159    2.6886    0.1586 C   0  0  0  0  0  0  0  0  0  0  0  0
   -2.5127    3.5764   -0.8933 C   0  0  0  0  0  0  0  0  0  0  0  0
   -1.1173    3.0109   -0.9576 C   0  0  0  0  0  0  0  0  0  0  0  0
   -0.8615    2.1717    0.0485 C   0  0  0  0  0  0  0  0  0  0  0  0
    0.4106    1.4093    0.2994 C   0  0  0  0  0  0  0  0  0  0  0  0
    0.1903   -0.0617   -0.0274 C   0  0  0  0  0  0  0  0  0  0  0  0
    0.1323   -0.9442    0.7883 O   0  0  0  0  0  0  0  0  0  0  0  0
   -2.0609    2.0400    0.9643 C   0  0  0  0  0  0  0  0  0  0  0  0
   -4.3513    1.1075    0.0640 H   0  0  0  0  0  0  0  0  0  0  0  0
   -3.8848    3.2717    0.8062 H   0  0  0  0  0  0  0  0  0  0  0  0
   -3.0527    3.5212   -1.8441 H   0  0  0  0  0  0  0  0  0  0  0  0
   -2.5027    4.6318   -0.5899 H   0  0  0  0  0  0  0  0  0  0  0  0
   -0.4050    3.2905   -1.7268 H   0  0  0  0  0  0  0  0  0  0  0  0
    1.2108    1.7909   -0.3459 H   0  0  0  0  0  0  0  0  0  0  0  0
    0.7254    1.4805    1.3459 H   0  0  0  0  0  0  0  0  0  0  0  0
    0.0441   -0.2641   -1.1127 H   0  0  0  0  0  0  0  0  0  0  0  0
   -2.2908    0.9997    1.2271 H   0  0  0  0  0  0  0  0  0  0  0  0
   -1.8830    2.5670    1.9125 H   0  0  0  0  0  0  0  0  0  0  0  0
  1  2  1  0
  2  3  1  0
  3  4  1  0
  4  5  2  0
  5  6  1  0
  6  7  1  0
  7  8  2  0
  5  9  1  0
  9  2  1  0
  1 10  1  0
  2 11  1  0
  3 12  1  0
  3 13  1  0
  4 14  1  0
  6 15  1  0
  6 16  1  0
  7 17  1  0
  9 18  1  0
  9 19  1  0
M  END
$$$$
