
     RDKit          3D

 19 21  0  0  0  0  0  0  0  0999 V2000
    4.5953   -2.3443    2.9373 C   0  0  0  0  0  0  0  0  0  0  0  0
    3.8928   -2.4404    1.6156 C   0  0  0  0  0  0  0  0  0  0  0  0
    3.7084   -3.6990    0.8124 C   0  0  0  0  0  0  0  0  0  0  0  0
    2.4897   -2.9406    1.2791 C   0  0  0  0  0  0  0  0  0  0  0  0
    2.2570   -1.6467    0.4375 C   0  0  0  0  0  0  0  0  0  0  0  0
    0.9615   -0.9469    0.1890 C   0  0  0  0  0  0  0  0  0  0  0  0
    0.1174   -1.6835   -0.6818 O   0  0  0  0  0  0  0  0  0  0  0  0
    3.2558   -1.5844   -0.6073 O   0  0  0  0  0  0  0  0  0  0  0  0
    3.6100   -1.1802    0.7239 C   0  0  0  0  0  0  0  0  0  0  0  0
    4.4598   -3.2615    3.5191 H   0  0  0  0  0  0  0  0  0  0  0  0
    5.6736   -2.1895    2.8072 H   0  0  0  0  0  0  0  0  0  0  0  0
    4.2115   -1.5111    3.5382 H   0  0  0  0  0  0  0  0  0  0  0  0
    3.9617   -3.7322   -0.2397 H   0  0  0  0  0  0  0  0  0  0  0  0
    3.9031   -4.6141    1.3638 H   0  0  0  0  0  0  0  0  0  0  0  0
    1.7446   -3.3590    1.9433 H   0  0  0  0  0  0  0  0  0  0  0  0
    0.4076   -0.8411    1.1281 H   0  0  0  0  0  0  0  0  0  0  0  0
    1.1718    0.0617   -0.1974 H   0  0  0  0  0  0  0  0  0  0  0  0
    0.6058   -1.8166   -1.5018 H   0  0  0  0  0  0  0  0  0  0  0  0
    4.0232   -0.1855    0.8529 H   0  0  0  0  0  0  0  0  0  0  0  0
  1  2  1  0
  2  3  1  0
  3  4  1  0
  4  5  1  0
  5  6  1  0
  6  7  1  0
  5  8  1  0
  8  9  1  0
  4  2  1  0
  9  5  1  0
  9  2  1  0
  1 10  1  0
  1 11  1  0
  1 12  1  0
  3 13  1  0
  3 14  1  0
  4 15  1  0
  6 16  1  0
  6 17  1  0
  7 18  1  0
  9 19  1  0
M  END
$$$$
