
     RDKit          3D

 19 20  0  0  0  0  0  0  0  0999 V2000
    2.1870    1.6276   -0.2710 C   0  0  0  0  0  0  0  0  0  0  0  0
    1.8830    0.1366   -0.0841 C   0  0  0  0  0  0  0  0  0  0  0  0
    2.0559   -0.6567   -1.3631 C   0  0  0  0  0  0  0  0  0  0  0  0
    3.3989   -1.2042   -1.7570 C   0  0  0  0  0  0  0  0  0  0  0  0
    2.3080   -2.1428   -1.3118 C   0  0  0  0  0  0  0  0  0  0  0  0
    2.2322   -3.1460   -0.1690 C   0  0  0  0  0  0  0  0  0  0  0  0
    1.5681   -4.0906   -1.0742 O   0  0  0  0  0  0  0  0  0  0  0  0
    1.6317   -3.2014   -2.1292 C   0  0  0  0  0  0  0  0  0  0  0  0
    1.2407   -3.3558   -3.2420 O   0  0  0  0  0  0  0  0  0  0  0  0
    2.0514    2.1769    0.6655 H   0  0  0  0  0  0  0  0  0  0  0  0
    3.2173    1.7808   -0.6076 H   0  0  0  0  0  0  0  0  0  0  0  0
    1.5234    2.0735   -1.0193 H   0  0  0  0  0  0  0  0  0  0  0  0
    2.5385   -0.2781    0.6927 H   0  0  0  0  0  0  0  0  0  0  0  0
    0.8564    0.0143    0.2838 H   0  0  0  0  0  0  0  0  0  0  0  0
    1.4165   -0.3455   -2.1865 H   0  0  0  0  0  0  0  0  0  0  0  0
    3.6721   -1.2302   -2.8063 H   0  0  0  0  0  0  0  0  0  0  0  0
    4.2279   -1.0589   -1.0707 H   0  0  0  0  0  0  0  0  0  0  0  0
    3.1794   -3.5561    0.1891 H   0  0  0  0  0  0  0  0  0  0  0  0
    1.5789   -2.8910    0.6688 H   0  0  0  0  0  0  0  0  0  0  0  0
  1  2  1  0
  2  3  1  0
  3  4  1  0
  4  5  1  0
  5  6  1  0
  6  7  1  0
  7  8  1  0
  8  9  2  0
  5  3  1  0
  8  5  1  0
  1 10  1  0
  1 11  1  0
  1 12  1  0
  2 13  1  0
  2 14  1  0
  3 15  1  0
  4 16  1  0
  4 17  1  0
  6 18  1  0
  6 19  1  0
M  END
$$$$
