gdb 4825	2.8644675	1.5974374	1.3031606	2.0561	72.97	-0.2346	0.05775	0.29235	1023.0432	0.156296	-422.490194	-422.481913	-422.480969	-422.523066	32.074
 OpenBabel02181911413D

 19 21  0  0  1  0  0  0  0  0999 V2000
    2.6695   -2.9683    0.7775 C   0  0  0  0  0  0  0  0  0  0  0  0
    2.5204   -1.5416    0.2544 C   0  0  1  0  0  0  0  0  0  0  0  0
    1.1002   -1.0088    0.4558 C   0  0  0  0  0  0  0  0  0  0  0  0
    0.1457   -1.7310   -0.3163 O   0  0  0  0  0  0  0  0  0  0  0  0
    3.6824   -0.6141    0.6435 C   0  0  2  0  0  0  0  0  0  0  0  0
    3.8662    0.3137   -0.5742 C   0  0  2  0  0  0  0  0  0  0  0  0
    2.8569   -0.0024   -1.5388 O   0  0  0  0  0  0  0  0  0  0  0  0
    3.1010   -1.3971   -1.1932 C   0  0  1  0  0  0  0  0  0  0  0  0
    4.4999   -1.0313   -0.5747 C   0  0  2  0  0  0  0  0  0  0  0  0
    2.5690   -2.9992    1.8679 H   0  0  0  0  0  0  0  0  0  0  0  0
    1.8850   -3.6005    0.3513 H   0  0  0  0  0  0  0  0  0  0  0  0
    3.6438   -3.3959    0.5202 H   0  0  0  0  0  0  0  0  0  0  0  0
    0.8034   -1.1341    1.5040 H   0  0  0  0  0  0  0  0  0  0  0  0
    1.0670    0.0610    0.2221 H   0  0  0  0  0  0  0  0  0  0  0  0
    0.2229   -1.4159   -1.2224 H   0  0  0  0  0  0  0  0  0  0  0  0
    4.0411   -0.3559    1.6326 H   0  0  0  0  0  0  0  0  0  0  0  0
    4.2687    1.3172   -0.5420 H   0  0  0  0  0  0  0  0  0  0  0  0
    2.8707   -2.0957   -1.9959 H   0  0  0  0  0  0  0  0  0  0  0  0
    5.5117   -1.3862   -0.7071 H   0  0  0  0  0  0  0  0  0  0  0  0
  1 10  1  0  0  0  0
  2  3  1  1  0  0  0
  2  5  1  0  0  0  0
  2  1  1  0  0  0  0
  3 13  1  0  0  0  0
  4  3  1  0  0  0  0
  5 16  1  1  0  0  0
  6 17  1  1  0  0  0
  6  5  1  0  0  0  0
  7  8  1  0  0  0  0
  7  6  1  0  0  0  0
  8 18  1  6  0  0  0
  8  9  1  0  0  0  0
  8  2  1  0  0  0  0
  9 19  1  6  0  0  0
  9  6  1  0  0  0  0
  9  5  1  0  0  0  0
 11  1  1  0  0  0  0
 12  1  1  0  0  0  0
 14  3  1  0  0  0  0
 15  4  1  0  0  0  0
M TOR 0 0 1 2 3
M TOR 1 0 1 2 12
M TOR 2 0 1 2 13
M TOR 3 0 1 4 5
M TOR 4 0 1 4 8
M TOR 5 0 1 4 15
M TOR 6 0 1 7 6
M TOR 7 0 1 7 8
M TOR 8 0 1 7 17
M TOR 9 1 2 3 14
M TOR 10 1 4 5 6
M TOR 11 1 4 5 8
M TOR 12 1 4 5 16
M TOR 13 1 4 8 7
M TOR 14 1 4 8 18
M TOR 15 1 7 6 5
M TOR 16 1 7 8 5
M TOR 17 1 7 8 18
M TOR 18 2 1 0 9
M TOR 19 2 1 0 10
M TOR 20 2 1 0 11
M TOR 21 2 1 4 5
M TOR 22 2 1 4 8
M TOR 23 2 1 4 15
M TOR 24 2 1 7 6
M TOR 25 2 1 7 8
M TOR 26 2 1 7 17
M TOR 27 3 2 1 4
M TOR 28 3 2 1 7
M TOR 29 4 1 0 9
M TOR 30 4 1 0 10
M TOR 31 4 1 0 11
M TOR 32 4 1 2 12
M TOR 33 4 1 2 13
M TOR 34 4 1 7 6
M TOR 35 4 1 7 17
M TOR 36 4 5 6 7
M TOR 37 4 5 8 7
M TOR 38 4 5 8 18
M TOR 39 4 8 5 6
M TOR 40 4 8 5 16
M TOR 41 4 8 7 6
M TOR 42 4 8 7 17
M TOR 43 5 4 1 7
M TOR 44 5 6 7 8
M TOR 45 5 6 7 17
M TOR 46 5 8 4 15
M TOR 47 5 8 7 17
M TOR 48 6 5 4 15
M TOR 49 6 5 8 18
M TOR 50 6 7 8 18
M TOR 51 7 1 0 9
M TOR 52 7 1 0 10
M TOR 53 7 1 0 11
M TOR 54 7 1 2 12
M TOR 55 7 1 2 13
M TOR 56 7 1 4 15
M TOR 57 7 6 5 16
M TOR 58 7 8 4 15
M TOR 59 7 8 5 16
M  END
$$$$
