gdb 5793	4.0061198	1.136887	1.0393742	0.8932	79.44	-0.23855	0.0041	0.24265	1221.9369	0.157022	-422.520107	-422.511808	-422.510864	-422.553349	31.015
 OpenBabel02181911423D

 19 20  0  0  1  0  0  0  0  0999 V2000
    0.1598    1.3086   -0.1368 C   0  0  0  0  0  0  0  0  0  0  0  0
    0.2300   -0.1040   -0.0566 O   0  0  0  0  0  0  0  0  0  0  0  0
    0.6192   -0.5760    1.1999 C   0  0  2  0  0  0  0  0  0  0  0  0
    1.9852   -0.2299    1.4951 O   0  0  0  0  0  0  0  0  0  0  0  0
    2.7093   -1.4165    1.7425 C   0  0  2  0  0  0  0  0  0  0  0  0
    3.6586   -2.1544    0.7195 C   0  0  0  0  0  0  0  0  0  0  0  0
    2.8713   -3.4846    1.0429 C   0  0  0  0  0  0  0  0  0  0  0  0
    1.7751   -2.5499    1.5063 C   0  0  2  0  0  3  0  0  0  0  0  0
    0.5812   -2.0950    1.1482 C   0  0  0  0  0  3  0  0  0  0  0  0
    1.1462    1.7675   -0.0019 H   0  0  0  0  0  0  0  0  0  0  0  0
   -0.2212    1.5529   -1.1308 H   0  0  0  0  0  0  0  0  0  0  0  0
   -0.5258    1.7190    0.6203 H   0  0  0  0  0  0  0  0  0  0  0  0
   -0.0082   -0.0977    1.9724 H   0  0  0  0  0  0  0  0  0  0  0  0
    3.1844   -1.3554    2.7293 H   0  0  0  0  0  0  0  0  0  0  0  0
    3.4659   -1.8197   -0.3008 H   0  0  0  0  0  0  0  0  0  0  0  0
    4.7295   -2.1432    0.9349 H   0  0  0  0  0  0  0  0  0  0  0  0
    2.6395   -4.1611    0.2194 H   0  0  0  0  0  0  0  0  0  0  0  0
    3.3505   -4.0460    1.8500 H   0  0  0  0  0  0  0  0  0  0  0  0
   -0.2429   -2.6156    0.6799 H   0  0  0  0  0  0  0  0  0  0  0  0
  1  2  1  0  0  0  0
  1 10  1  0  0  0  0
  1 12  1  0  0  0  0
  2  3  1  0  0  0  0
  3  4  1  0  0  0  0
  3 13  1  1  0  0  0
  4  5  1  0  0  0  0
  5 14  1  1  0  0  0
  6 16  1  0  0  0  0
  6  7  1  0  0  0  0
  6  5  1  0  0  0  0
  7  8  1  0  0  0  0
  7 18  1  0  0  0  0
  8  9  1  6  0  0  0
  8  5  1  0  0  0  0
  9  3  1  0  0  0  0
 11  1  1  0  0  0  0
 15  6  1  0  0  0  0
 17  7  1  0  0  0  0
 19  9  1  0  0  0  0
M TOR 0 0 1 2 3
M TOR 1 0 1 2 8
M TOR 2 0 1 2 12
M TOR 3 1 2 3 4
M TOR 4 1 2 8 7
M TOR 5 1 2 8 18
M TOR 6 2 1 0 9
M TOR 7 2 1 0 10
M TOR 8 2 1 0 11
M TOR 9 2 3 4 5
M TOR 10 2 3 4 7
M TOR 11 2 3 4 13
M TOR 12 2 8 7 4
M TOR 13 2 8 7 6
M TOR 14 3 2 8 7
M TOR 15 3 2 8 18
M TOR 16 3 4 5 6
M TOR 17 3 4 5 14
M TOR 18 3 4 5 15
M TOR 19 3 4 7 6
M TOR 20 3 4 7 8
M TOR 21 4 3 2 8
M TOR 22 4 3 2 12
M TOR 23 4 5 6 7
M TOR 24 4 5 6 16
M TOR 25 4 5 6 17
M TOR 26 4 7 6 16
M TOR 27 4 7 6 17
M TOR 28 4 7 8 18
M TOR 29 5 4 7 8
M TOR 30 5 6 7 8
M TOR 31 6 5 4 13
M TOR 32 6 7 4 13
M TOR 33 6 7 8 18
M TOR 34 7 4 5 14
M TOR 35 7 4 5 15
M TOR 36 7 6 5 14
M TOR 37 7 6 5 15
M TOR 38 7 8 2 12
M TOR 39 8 7 4 13
M TOR 40 8 7 6 16
M TOR 41 8 7 6 17
M  END
$$$$
