
     RDKit          3D

 19 20  0  0  0  0  0  0  0  0999 V2000
    0.1401    1.4221   -0.1224 O   0  0  0  0  0  0  0  0  0  0  0  0
    0.0766    0.0090   -0.0205 C   0  0  0  0  0  0  0  0  0  0  0  0
   -1.3745   -0.5640    0.0190 C   0  0  0  0  0  0  0  0  0  0  0  0
   -1.2631   -1.8317    0.8831 C   0  0  0  0  0  0  0  0  0  0  0  0
   -2.2646   -2.1820    1.9894 C   0  0  0  0  0  0  0  0  0  0  0  0
   -1.4884   -2.8848    2.9666 O   0  0  0  0  0  0  0  0  0  0  0  0
   -0.1442   -2.3815    2.9714 C   0  0  0  0  0  0  0  0  0  0  0  0
   -0.0394   -1.5542    1.7273 C   0  0  0  0  0  0  0  0  0  0  0  0
    0.6940   -0.5532    1.2519 C   0  0  0  0  0  0  0  0  0  0  0  0
   -0.2662    1.7861    0.6725 H   0  0  0  0  0  0  0  0  0  0  0  0
    0.6105   -0.3433   -0.9130 H   0  0  0  0  0  0  0  0  0  0  0  0
   -2.0114    0.1757    0.5214 H   0  0  0  0  0  0  0  0  0  0  0  0
   -1.7897   -0.7349   -0.9768 H   0  0  0  0  0  0  0  0  0  0  0  0
   -1.1028   -2.7213    0.2582 H   0  0  0  0  0  0  0  0  0  0  0  0
   -2.7014   -1.2647    2.4181 H   0  0  0  0  0  0  0  0  0  0  0  0
   -3.0774   -2.8469    1.6860 H   0  0  0  0  0  0  0  0  0  0  0  0
    0.0452   -1.7863    3.8764 H   0  0  0  0  0  0  0  0  0  0  0  0
    0.5380   -3.2411    2.9878 H   0  0  0  0  0  0  0  0  0  0  0  0
    1.6048   -0.1426    1.6733 H   0  0  0  0  0  0  0  0  0  0  0  0
  1  2  1  0
  2  3  1  0
  3  4  1  0
  4  5  1  0
  5  6  1  0
  6  7  1  0
  7  8  1  0
  8  9  2  0
  9  2  1  0
  8  4  1  0
  1 10  1  0
  2 11  1  0
  3 12  1  0
  3 13  1  0
  4 14  1  0
  5 15  1  0
  5 16  1  0
  7 17  1  0
  7 18  1  0
  9 19  1  0
M  END
$$$$
