
     RDKit          3D

 19 19  0  0  0  0  0  0  0  0999 V2000
   -1.2393   -0.4402    1.2114 O   0  0  0  0  0  0  0  0  0  0  0  0
   -1.0740    0.2360   -0.0319 C   0  0  0  0  0  0  0  0  0  0  0  0
   -2.2204    1.2371   -0.1955 C   0  0  0  0  0  0  0  0  0  0  0  0
   -1.9601    2.5306    0.5833 C   0  0  0  0  0  0  0  0  0  0  0  0
   -0.6879    3.2199    0.0688 C   0  0  0  0  0  0  0  0  0  0  0  0
    0.4458    2.2488   -0.0712 C   0  0  0  0  0  0  0  0  0  0  0  0
    0.2816    0.9173   -0.0892 C   0  0  0  0  0  0  0  0  0  0  0  0
    1.4633    0.0462   -0.0784 C   0  0  0  0  0  0  0  0  0  0  0  0
    1.4148   -1.1544    0.1073 O   0  0  0  0  0  0  0  0  0  0  0  0
   -0.5323   -1.0976    1.2485 H   0  0  0  0  0  0  0  0  0  0  0  0
   -1.1165   -0.4957   -0.8533 H   0  0  0  0  0  0  0  0  0  0  0  0
   -2.3412    1.4664   -1.2619 H   0  0  0  0  0  0  0  0  0  0  0  0
   -3.1414    0.7522    0.1402 H   0  0  0  0  0  0  0  0  0  0  0  0
   -2.8143    3.2100    0.5053 H   0  0  0  0  0  0  0  0  0  0  0  0
   -1.8350    2.2860    1.6440 H   0  0  0  0  0  0  0  0  0  0  0  0
   -0.8734    3.6935   -0.9083 H   0  0  0  0  0  0  0  0  0  0  0  0
   -0.3851    4.0385    0.7330 H   0  0  0  0  0  0  0  0  0  0  0  0
    1.4554    2.6551   -0.1346 H   0  0  0  0  0  0  0  0  0  0  0  0
    2.4383    0.5605   -0.2280 H   0  0  0  0  0  0  0  0  0  0  0  0
  1  2  1  0
  2  3  1  0
  3  4  1  0
  4  5  1  0
  5  6  1  0
  6  7  2  0
  7  8  1  0
  8  9  2  0
  7  2  1  0
  1 10  1  0
  2 11  1  0
  3 12  1  0
  3 13  1  0
  4 14  1  0
  4 15  1  0
  5 16  1  0
  5 17  1  0
  6 18  1  0
  8 19  1  0
M  END
$$$$
