gdb 3890	3.1933221	1.2262914	0.9887913	2.7195	75.4	-0.25125	-0.02837	0.22287999999999997	1213.9242	0.156739	-422.577766	-422.569361	-422.568417	-422.6108	32.436
 OpenBabel02181911413D

 19 20  0  0  1  0  0  0  0  0999 V2000
   -0.4282    2.4955   -0.0486 O   0  0  0  0  0  0  0  0  0  0  0  0
   -1.0819    1.2644    0.0598 C   0  0  1  0  0  0  0  0  0  0  0  0
   -1.8671    0.8041   -1.1763 C   0  0  0  0  0  0  0  0  0  0  0  0
   -2.0265   -0.6980   -0.9263 C   0  0  0  0  0  0  0  0  0  0  0  0
   -2.8295   -1.5741   -1.8427 C   0  0  0  0  0  0  0  0  0  0  0  0
   -3.3565   -1.2470   -0.4651 C   0  0  0  0  0  0  0  0  0  0  0  0
   -0.7259   -1.1729   -0.2749 C   0  0  0  0  0  0  0  0  0  0  0  0
   -0.1043    0.1080    0.2746 C   0  0  0  0  0  0  0  0  0  0  0  0
    1.0056    0.2627    0.7216 O   0  0  0  0  0  0  0  0  0  0  0  0
    0.4504    2.3584    0.3374 H   0  0  0  0  0  0  0  0  0  0  0  0
   -1.7703    1.2533    0.9272 H   0  0  0  0  0  0  0  0  0  0  0  0
   -2.8222    1.3201   -1.2985 H   0  0  0  0  0  0  0  0  0  0  0  0
   -1.2607    0.9963   -2.0706 H   0  0  0  0  0  0  0  0  0  0  0  0
   -3.3109   -1.1111   -2.6980 H   0  0  0  0  0  0  0  0  0  0  0  0
   -2.4740   -2.5829   -2.0260 H   0  0  0  0  0  0  0  0  0  0  0  0
   -4.1950   -0.5624   -0.3887 H   0  0  0  0  0  0  0  0  0  0  0  0
   -3.3556   -2.0355    0.2806 H   0  0  0  0  0  0  0  0  0  0  0  0
   -0.8631   -1.9176    0.5155 H   0  0  0  0  0  0  0  0  0  0  0  0
   -0.0220   -1.6034   -0.9982 H   0  0  0  0  0  0  0  0  0  0  0  0
  1  2  1  0  0  0  0
  1 10  1  0  0  0  0
  2  8  1  0  0  0  0
  2 11  1  1  0  0  0
  3  4  1  0  0  0  0
  3  2  1  0  0  0  0
  4  6  1  0  0  0  0
  4  7  1  0  0  0  0
  5  4  1  0  0  0  0
  5  6  1  0  0  0  0
  6 16  1  0  0  0  0
  6 17  1  0  0  0  0
  7  8  1  0  0  0  0
  7 18  1  0  0  0  0
  8  9  2  0  0  0  0
 12  3  1  0  0  0  0
 13  3  1  0  0  0  0
 14  5  1  0  0  0  0
 15  5  1  0  0  0  0
 19  7  1  0  0  0  0
M TOR 0 0 1 2 3
M TOR 1 0 1 2 11
M TOR 2 0 1 2 12
M TOR 3 0 1 7 6
M TOR 4 0 1 7 8
M TOR 5 1 2 3 4
M TOR 6 1 2 3 5
M TOR 7 1 2 3 6
M TOR 8 1 7 6 3
M TOR 9 1 7 6 17
M TOR 10 1 7 6 18
M TOR 11 2 1 0 9
M TOR 12 2 1 7 6
M TOR 13 2 1 7 8
M TOR 14 2 3 4 5
M TOR 15 2 3 4 13
M TOR 16 2 3 4 14
M TOR 17 2 3 5 15
M TOR 18 2 3 5 16
M TOR 19 2 3 6 7
M TOR 20 2 3 6 17
M TOR 21 2 3 6 18
M TOR 22 3 2 1 7
M TOR 23 3 2 1 10
M TOR 24 3 4 5 15
M TOR 25 3 4 5 16
M TOR 26 3 5 4 13
M TOR 27 3 5 4 14
M TOR 28 3 6 7 8
M TOR 29 4 3 2 11
M TOR 30 4 3 2 12
M TOR 31 4 3 6 7
M TOR 32 4 3 6 17
M TOR 33 4 3 6 18
M TOR 34 4 5 3 6
M TOR 35 5 3 2 11
M TOR 36 5 3 2 12
M TOR 37 5 3 6 7
M TOR 38 5 3 6 17
M TOR 39 5 3 6 18
M TOR 40 6 3 2 11
M TOR 41 6 3 2 12
M TOR 42 6 3 4 13
M TOR 43 6 3 4 14
M TOR 44 6 3 5 15
M TOR 45 6 3 5 16
M TOR 46 6 7 1 10
M TOR 47 7 1 0 9
M TOR 48 7 1 2 11
M TOR 49 7 1 2 12
M TOR 50 8 7 1 10
M TOR 51 8 7 6 17
M TOR 52 8 7 6 18
M  END
$$$$
