
     RDKit          3D

 19 20  0  0  0  0  0  0  0  0999 V2000
   -1.8693    2.4601    0.7829 O   0  0  0  0  0  0  0  0  0  0  0  0
   -1.3085    1.1651    0.9142 C   0  0  0  0  0  0  0  0  0  0  0  0
   -1.9412    0.2421   -0.1463 C   0  0  0  0  0  0  0  0  0  0  0  0
   -1.8952   -1.1557    0.4436 C   0  0  0  0  0  0  0  0  0  0  0  0
   -0.6370   -1.6319    1.0875 C   0  0  0  0  0  0  0  0  0  0  0  0
   -1.7116   -1.0000    1.9670 C   0  0  0  0  0  0  0  0  0  0  0  0
   -1.5976    0.4811    2.2738 C   0  0  0  0  0  0  0  0  0  0  0  0
   -2.4619   -1.8846    2.8760 C   0  0  0  0  0  0  0  0  0  0  0  0
   -2.9925   -1.5317    3.9021 O   0  0  0  0  0  0  0  0  0  0  0  0
   -1.4208    3.0463    1.4003 H   0  0  0  0  0  0  0  0  0  0  0  0
   -0.2213    1.2160    0.7531 H   0  0  0  0  0  0  0  0  0  0  0  0
   -2.9821    0.5526   -0.2882 H   0  0  0  0  0  0  0  0  0  0  0  0
   -1.4373    0.3198   -1.1146 H   0  0  0  0  0  0  0  0  0  0  0  0
   -2.5818   -1.9032    0.0608 H   0  0  0  0  0  0  0  0  0  0  0  0
   -0.5059   -2.7053    1.1836 H   0  0  0  0  0  0  0  0  0  0  0  0
    0.2902   -1.0849    0.9531 H   0  0  0  0  0  0  0  0  0  0  0  0
   -2.5582    0.8384    2.6591 H   0  0  0  0  0  0  0  0  0  0  0  0
   -0.8358    0.7059    3.0277 H   0  0  0  0  0  0  0  0  0  0  0  0
   -2.5172   -2.9463    2.5348 H   0  0  0  0  0  0  0  0  0  0  0  0
  1  2  1  0
  2  3  1  0
  3  4  1  0
  4  5  1  0
  5  6  1  0
  6  7  1  0
  6  8  1  0
  8  9  2  0
  7  2  1  0
  6  4  1  0
  1 10  1  0
  2 11  1  0
  3 12  1  0
  3 13  1  0
  4 14  1  0
  5 15  1  0
  5 16  1  0
  7 17  1  0
  7 18  1  0
  8 19  1  0
M  END
$$$$
