
     RDKit          3D

 19 20  0  0  0  0  0  0  0  0999 V2000
   -4.0043    0.2044    1.6963 C   0  0  0  0  0  0  0  0  0  0  0  0
   -2.5518    0.1338    1.2823 C   0  0  0  0  0  0  0  0  0  0  0  0
   -2.1224    0.7098   -0.0350 C   0  0  0  0  0  0  0  0  0  0  0  0
   -0.7823    1.1523   -0.1326 O   0  0  0  0  0  0  0  0  0  0  0  0
    0.0857    0.0970   -0.0705 C   0  0  0  0  0  0  0  0  0  0  0  0
    1.2710    0.2444   -0.1220 O   0  0  0  0  0  0  0  0  0  0  0  0
   -0.6914   -1.2247    0.0683 C   0  0  0  0  0  0  0  0  0  0  0  0
   -0.3703   -2.1588   -1.1065 C   0  0  0  0  0  0  0  0  0  0  0  0
   -2.1411   -0.7864    0.1435 C   0  0  0  0  0  0  0  0  0  0  0  0
   -4.2614   -0.6138    2.3771 H   0  0  0  0  0  0  0  0  0  0  0  0
   -4.2243    1.1491    2.2041 H   0  0  0  0  0  0  0  0  0  0  0  0
   -4.6675    0.1311    0.8278 H   0  0  0  0  0  0  0  0  0  0  0  0
   -1.8306    0.2466    2.0897 H   0  0  0  0  0  0  0  0  0  0  0  0
   -2.7935    1.2715   -0.6730 H   0  0  0  0  0  0  0  0  0  0  0  0
   -0.3503   -1.6956    0.9975 H   0  0  0  0  0  0  0  0  0  0  0  0
   -0.8512   -3.1312   -0.9674 H   0  0  0  0  0  0  0  0  0  0  0  0
   -0.7216   -1.7366   -2.0535 H   0  0  0  0  0  0  0  0  0  0  0  0
    0.7094   -2.3096   -1.1797 H   0  0  0  0  0  0  0  0  0  0  0  0
   -2.9019   -1.3962   -0.3308 H   0  0  0  0  0  0  0  0  0  0  0  0
  1  2  1  0
  2  3  1  0
  3  4  1  0
  4  5  1  0
  5  6  2  0
  5  7  1  0
  7  8  1  0
  7  9  1  0
  9  2  1  0
  9  3  1  0
  1 10  1  0
  1 11  1  0
  1 12  1  0
  2 13  1  0
  3 14  1  0
  7 15  1  0
  8 16  1  0
  8 17  1  0
  8 18  1  0
  9 19  1  0
M  END
$$$$
