
     RDKit          3D

 19 19  0  0  0  0  0  0  0  0999 V2000
    1.4068    0.8642   -0.5061 C   0  0  0  0  0  0  0  0  0  0  0  0
    0.1800    0.0981   -0.0852 C   0  0  0  0  0  0  0  0  0  0  0  0
    0.0865   -1.2356   -0.2103 C   0  0  0  0  0  0  0  0  0  0  0  0
   -1.0598   -2.0950    0.2543 C   0  0  0  0  0  0  0  0  0  0  0  0
   -2.4107   -1.7543   -0.4073 C   0  0  0  0  0  0  0  0  0  0  0  0
   -2.6702   -0.3703   -0.5122 O   0  0  0  0  0  0  0  0  0  0  0  0
   -2.3261    0.4051    0.6142 C   0  0  0  0  0  0  0  0  0  0  0  0
   -0.8813    0.9244    0.5663 C   0  0  0  0  0  0  0  0  0  0  0  0
   -0.6275    2.0223    1.0209 O   0  0  0  0  0  0  0  0  0  0  0  0
    1.8357    1.3974    0.3475 H   0  0  0  0  0  0  0  0  0  0  0  0
    2.1629    0.1991   -0.9298 H   0  0  0  0  0  0  0  0  0  0  0  0
    1.1559    1.6283   -1.2500 H   0  0  0  0  0  0  0  0  0  0  0  0
    0.9309   -1.7586   -0.6547 H   0  0  0  0  0  0  0  0  0  0  0  0
   -0.8460   -3.1499    0.0567 H   0  0  0  0  0  0  0  0  0  0  0  0
   -1.1644   -2.0141    1.3432 H   0  0  0  0  0  0  0  0  0  0  0  0
   -2.4350   -2.1303   -1.4347 H   0  0  0  0  0  0  0  0  0  0  0  0
   -3.2130   -2.2572    0.1567 H   0  0  0  0  0  0  0  0  0  0  0  0
   -2.9720    1.2870    0.6190 H   0  0  0  0  0  0  0  0  0  0  0  0
   -2.4990   -0.1294    1.5621 H   0  0  0  0  0  0  0  0  0  0  0  0
  1  2  1  0
  2  3  2  0
  3  4  1  0
  4  5  1  0
  5  6  1  0
  6  7  1  0
  7  8  1  0
  8  9  2  0
  8  2  1  0
  1 10  1  0
  1 11  1  0
  1 12  1  0
  3 13  1  0
  4 14  1  0
  4 15  1  0
  5 16  1  0
  5 17  1  0
  7 18  1  0
  7 19  1  0
M  END
$$$$
