
     RDKit          3D

 19 21  0  0  0  0  0  0  0  0999 V2000
    3.4446   -0.1489    0.5644 C   0  0  0  0  0  0  0  0  0  0  0  0
    3.3693   -0.5645   -0.9056 C   0  0  0  0  0  0  0  0  0  0  0  0
    3.4578    0.6739   -1.8878 C   0  0  0  0  0  0  0  0  0  0  0  0
    4.8569    0.1928   -2.2922 C   0  0  0  0  0  0  0  0  0  0  0  0
    4.7154   -1.1213   -2.8463 O   0  0  0  0  0  0  0  0  0  0  0  0
    4.7642   -0.9897   -1.4245 C   0  0  0  0  0  0  0  0  0  0  0  0
    2.2000   -1.5127   -1.1213 C   0  0  0  0  0  0  0  0  0  0  0  0
    2.3117   -2.8241   -1.7810 C   0  0  0  0  0  0  0  0  0  0  0  0
    1.7249   -1.7103   -2.4512 O   0  0  0  0  0  0  0  0  0  0  0  0
    3.5425   -1.0245    1.2169 H   0  0  0  0  0  0  0  0  0  0  0  0
    4.3063    0.5012    0.7461 H   0  0  0  0  0  0  0  0  0  0  0  0
    2.5423    0.3943    0.8645 H   0  0  0  0  0  0  0  0  0  0  0  0
    2.7323    0.6846   -2.7021 H   0  0  0  0  0  0  0  0  0  0  0  0
    3.4506    1.6295   -1.3578 H   0  0  0  0  0  0  0  0  0  0  0  0
    5.7183    0.7687   -2.6085 H   0  0  0  0  0  0  0  0  0  0  0  0
    5.5265   -1.5533   -0.8957 H   0  0  0  0  0  0  0  0  0  0  0  0
    1.3929   -1.3923   -0.3942 H   0  0  0  0  0  0  0  0  0  0  0  0
    3.2726   -3.1420   -2.1781 H   0  0  0  0  0  0  0  0  0  0  0  0
    1.6239   -3.6246   -1.5100 H   0  0  0  0  0  0  0  0  0  0  0  0
  1  2  1  0
  2  3  1  0
  3  4  1  0
  4  5  1  0
  5  6  1  0
  2  7  1  0
  7  8  1  0
  8  9  1  0
  6  2  1  0
  9  7  1  0
  6  4  1  0
  1 10  1  0
  1 11  1  0
  1 12  1  0
  3 13  1  0
  3 14  1  0
  4 15  1  0
  6 16  1  0
  7 17  1  0
  8 18  1  0
  8 19  1  0
M  END
$$$$
