gdb 4644	5.1959291	0.5182317	0.4936083	2.331	83.33	-0.25467	0.01563	0.2703	2262.6412	0.153584	-422.562453	-422.551395	-422.550451	-422.601492	36.413
 OpenBabel02181911413D

 19 18  0  0  0  0  0  0  0  0999 V2000
   -0.1066   -0.1071   -0.2063 C   0  0  0  0  0  0  0  0  0  0  0  0
    1.3968   -0.0318    0.1159 C   0  0  0  0  0  0  0  0  0  0  0  0
    1.9260    1.3271    0.0891 C   0  0  0  0  0  0  0  0  0  0  0  0
    2.3433    2.4560    0.0664 C   0  0  0  0  0  0  0  0  0  0  0  0
    2.8629    3.8097    0.0004 C   0  0  0  0  0  0  0  0  0  0  0  0
    2.7916    4.4063    1.3161 O   0  0  0  0  0  0  0  0  0  0  0  0
    3.2477    5.6754    1.3868 C   0  0  0  0  0  0  0  0  0  0  0  0
    3.1315    6.2042    2.7960 C   0  0  0  0  0  0  0  0  0  0  0  0
    3.6834    6.2805    0.4397 O   0  0  0  0  0  0  0  0  0  0  0  0
   -0.6877    0.4745    0.5144 H   0  0  0  0  0  0  0  0  0  0  0  0
   -0.3110    0.2908   -1.2039 H   0  0  0  0  0  0  0  0  0  0  0  0
   -0.4517   -1.1446   -0.1713 H   0  0  0  0  0  0  0  0  0  0  0  0
    1.5845   -0.4692    1.1049 H   0  0  0  0  0  0  0  0  0  0  0  0
    1.9584   -0.6503   -0.5959 H   0  0  0  0  0  0  0  0  0  0  0  0
    3.9041    3.8260   -0.3400 H   0  0  0  0  0  0  0  0  0  0  0  0
    2.2911    4.4280   -0.7003 H   0  0  0  0  0  0  0  0  0  0  0  0
    3.7109    5.5775    3.4798 H   0  0  0  0  0  0  0  0  0  0  0  0
    3.4979    7.2295    2.8290 H   0  0  0  0  0  0  0  0  0  0  0  0
    2.0895    6.1673    3.1256 H   0  0  0  0  0  0  0  0  0  0  0  0
  1 12  1  0  0  0  0
  1  2  1  0  0  0  0
  1 10  1  0  0  0  0
  2 13  1  0  0  0  0
  3  2  1  0  0  0  0
  4  3  3  0  0  0  0
  5  4  1  0  0  0  0
  5  6  1  0  0  0  0
  6  7  1  0  0  0  0
  7  8  1  0  0  0  0
  8 18  1  0  0  0  0
  8 19  1  0  0  0  0
  8 17  1  0  0  0  0
  9  7  2  0  0  0  0
 11  1  1  0  0  0  0
 14  2  1  0  0  0  0
 15  5  1  0  0  0  0
 16  5  1  0  0  0  0
M TOR 0 0 1 2 3
M TOR 1 1 2 3 4
M TOR 2 2 1 0 9
M TOR 3 2 1 0 10
M TOR 4 2 1 0 11
M TOR 5 2 3 4 5
M TOR 6 2 3 4 14
M TOR 7 2 3 4 15
M TOR 8 3 2 1 12
M TOR 9 3 2 1 13
M TOR 10 3 4 5 6
M TOR 11 4 5 6 7
M TOR 12 4 5 6 8
M TOR 13 5 6 7 16
M TOR 14 5 6 7 17
M TOR 15 5 6 7 18
M TOR 16 6 5 4 14
M TOR 17 6 5 4 15
M TOR 18 8 6 7 16
M TOR 19 8 6 7 17
M TOR 20 8 6 7 18
M  END
$$$$
