
     RDKit          3D

 19 21  0  0  0  0  0  0  0  0999 V2000
    2.9209   -0.5353    2.3656 O   0  0  0  0  0  0  0  0  0  0  0  0
    1.6167   -0.7649    1.9565 C   0  0  0  0  0  0  0  0  0  0  0  0
    0.3416    0.0800    2.1956 C   0  0  0  0  0  0  0  0  0  0  0  0
   -0.0834   -1.0759    1.2521 C   0  0  0  0  0  0  0  0  0  0  0  0
    0.7776   -2.0783    2.0847 C   0  0  0  0  0  0  0  0  0  0  0  0
    1.3768   -3.1400    1.1573 C   0  0  0  0  0  0  0  0  0  0  0  0
    1.7157   -2.2570   -0.0717 C   0  0  0  0  0  0  0  0  0  0  0  0
    1.2369   -0.8964    0.4474 C   0  0  0  0  0  0  0  0  0  0  0  0
    1.3192    0.2035   -0.4067 O   0  0  0  0  0  0  0  0  0  0  0  0
    2.9405   -0.4830    3.3272 H   0  0  0  0  0  0  0  0  0  0  0  0
   -0.0806    0.0630    3.2049 H   0  0  0  0  0  0  0  0  0  0  0  0
    0.3334    1.0818    1.7643 H   0  0  0  0  0  0  0  0  0  0  0  0
   -1.0713   -1.2638    0.8367 H   0  0  0  0  0  0  0  0  0  0  0  0
    0.4110   -2.3737    3.0692 H   0  0  0  0  0  0  0  0  0  0  0  0
    2.2636   -3.6064    1.5969 H   0  0  0  0  0  0  0  0  0  0  0  0
    0.6651   -3.9370    0.9222 H   0  0  0  0  0  0  0  0  0  0  0  0
    2.7859   -2.2439   -0.3046 H   0  0  0  0  0  0  0  0  0  0  0  0
    1.1794   -2.5479   -0.9796 H   0  0  0  0  0  0  0  0  0  0  0  0
    2.2520    0.3877   -0.5624 H   0  0  0  0  0  0  0  0  0  0  0  0
  1  2  1  0
  2  3  1  0
  3  4  1  0
  4  5  1  0
  5  6  1  0
  6  7  1  0
  7  8  1  0
  8  9  1  0
  5  2  1  0
  8  2  1  0
  8  4  1  0
  1 10  1  0
  3 11  1  0
  3 12  1  0
  4 13  1  0
  5 14  1  0
  6 15  1  0
  6 16  1  0
  7 17  1  0
  7 18  1  0
  9 19  1  0
M  END
$$$$
