
     RDKit          3D

 19 21  0  0  0  0  0  0  0  0999 V2000
    0.7574    0.0326    0.9369 O   0  0  0  0  0  0  0  0  0  0  0  0
   -0.5989    0.4343    0.8762 C   0  0  0  0  0  0  0  0  0  0  0  0
   -1.4319    0.1606    2.1723 C   0  0  0  0  0  0  0  0  0  0  0  0
   -1.4473    1.6861    2.5183 C   0  0  0  0  0  0  0  0  0  0  0  0
   -2.7412    2.4607    2.1457 C   0  0  0  0  0  0  0  0  0  0  0  0
   -2.1733    2.6604    0.7209 C   0  0  0  0  0  0  0  0  0  0  0  0
   -1.4367    3.8949    0.5567 O   0  0  0  0  0  0  0  0  0  0  0  0
   -0.1579    3.2125    0.6574 C   0  0  0  0  0  0  0  0  0  0  0  0
   -0.8514    1.9285    1.0852 C   0  0  0  0  0  0  0  0  0  0  0  0
    1.1403    0.3794    1.7504 H   0  0  0  0  0  0  0  0  0  0  0  0
   -0.9806    0.0050   -0.0548 H   0  0  0  0  0  0  0  0  0  0  0  0
   -2.4204   -0.2744    1.9991 H   0  0  0  0  0  0  0  0  0  0  0  0
   -0.8990   -0.4715    2.8879 H   0  0  0  0  0  0  0  0  0  0  0  0
   -0.9256    1.9668    3.4355 H   0  0  0  0  0  0  0  0  0  0  0  0
   -3.6673    1.8813    2.2150 H   0  0  0  0  0  0  0  0  0  0  0  0
   -2.8761    3.4117    2.6660 H   0  0  0  0  0  0  0  0  0  0  0  0
   -2.7968    2.4330   -0.1504 H   0  0  0  0  0  0  0  0  0  0  0  0
    0.3435    3.1542   -0.3187 H   0  0  0  0  0  0  0  0  0  0  0  0
    0.5142    3.6943    1.3779 H   0  0  0  0  0  0  0  0  0  0  0  0
  1  2  1  0
  2  3  1  0
  3  4  1  0
  4  5  1  0
  5  6  1  0
  6  7  1  0
  7  8  1  0
  8  9  1  0
  9  2  1  0
  9  4  1  0
  9  6  1  0
  1 10  1  0
  2 11  1  0
  3 12  1  0
  3 13  1  0
  4 14  1  0
  5 15  1  0
  5 16  1  0
  6 17  1  0
  8 18  1  0
  8 19  1  0
M  END
$$$$
