
     RDKit          3D

 19 20  0  0  0  0  0  0  0  0999 V2000
   -3.2031   -1.9200   -1.3453 C   0  0  0  0  0  0  0  0  0  0  0  0
   -2.0623   -0.9504   -1.1225 C   0  0  0  0  0  0  0  0  0  0  0  0
   -2.2053    0.1266   -0.1018 C   0  0  0  0  0  0  0  0  0  0  0  0
   -1.0093    1.0902   -0.1934 C   0  0  0  0  0  0  0  0  0  0  0  0
   -0.1187   -0.1294    0.1459 C   0  0  0  0  0  0  0  0  0  0  0  0
    1.0280   -0.2501    0.4970 O   0  0  0  0  0  0  0  0  0  0  0  0
   -1.2617   -1.0874    0.1759 C   0  0  0  0  0  0  0  0  0  0  0  0
   -1.2390   -2.2758    1.1043 C   0  0  0  0  0  0  0  0  0  0  0  0
   -0.1223   -3.0993    0.8112 O   0  0  0  0  0  0  0  0  0  0  0  0
   -3.7893   -2.0750   -0.4345 H   0  0  0  0  0  0  0  0  0  0  0  0
   -3.8810   -1.5338   -2.1133 H   0  0  0  0  0  0  0  0  0  0  0  0
   -2.8351   -2.8953   -1.6789 H   0  0  0  0  0  0  0  0  0  0  0  0
   -1.5089   -0.7106   -2.0296 H   0  0  0  0  0  0  0  0  0  0  0  0
   -3.1421    0.3386    0.3980 H   0  0  0  0  0  0  0  0  0  0  0  0
   -0.8530    1.5908   -1.1537 H   0  0  0  0  0  0  0  0  0  0  0  0
   -0.9545    1.8297    0.6108 H   0  0  0  0  0  0  0  0  0  0  0  0
   -1.2119   -1.9261    2.1489 H   0  0  0  0  0  0  0  0  0  0  0  0
   -2.1306   -2.8995    0.9935 H   0  0  0  0  0  0  0  0  0  0  0  0
    0.6573   -2.5301    0.8630 H   0  0  0  0  0  0  0  0  0  0  0  0
  1  2  1  0
  2  3  1  0
  3  4  1  0
  4  5  1  0
  5  6  2  0
  5  7  1  0
  7  8  1  0
  8  9  1  0
  7  2  1  0
  7  3  1  0
  1 10  1  0
  1 11  1  0
  1 12  1  0
  2 13  1  0
  3 14  1  0
  4 15  1  0
  4 16  1  0
  8 17  1  0
  8 18  1  0
  9 19  1  0
M  END
$$$$
