
     RDKit          3D

 19 20  0  0  0  0  0  0  0  0999 V2000
   -3.4699   -1.3784   -0.3947 C   0  0  0  0  0  0  0  0  0  0  0  0
   -2.2955   -0.4903   -0.0551 C   0  0  0  0  0  0  0  0  0  0  0  0
   -1.9559    0.6826   -1.0000 C   0  0  0  0  0  0  0  0  0  0  0  0
   -0.8762    1.2544   -0.0574 C   0  0  0  0  0  0  0  0  0  0  0  0
   -1.7019    1.3317    1.2497 C   0  0  0  0  0  0  0  0  0  0  0  0
   -2.5698    0.1907    1.1917 O   0  0  0  0  0  0  0  0  0  0  0  0
    0.0321    0.0329    0.1198 C   0  0  0  0  0  0  0  0  0  0  0  0
    1.2268    0.0185    0.2499 O   0  0  0  0  0  0  0  0  0  0  0  0
   -0.9213   -1.1779    0.1026 C   0  0  0  0  0  0  0  0  0  0  0  0
   -3.6307   -2.1198    0.3935 H   0  0  0  0  0  0  0  0  0  0  0  0
   -4.3820   -0.7830   -0.4936 H   0  0  0  0  0  0  0  0  0  0  0  0
   -3.2933   -1.9092   -1.3349 H   0  0  0  0  0  0  0  0  0  0  0  0
   -1.5664    0.3633   -1.9704 H   0  0  0  0  0  0  0  0  0  0  0  0
   -2.8051    1.3550   -1.1472 H   0  0  0  0  0  0  0  0  0  0  0  0
   -0.3539    2.1697   -0.3292 H   0  0  0  0  0  0  0  0  0  0  0  0
   -1.0816    1.2885    2.1525 H   0  0  0  0  0  0  0  0  0  0  0  0
   -2.2992    2.2522    1.2830 H   0  0  0  0  0  0  0  0  0  0  0  0
   -0.6786   -1.8317   -0.7430 H   0  0  0  0  0  0  0  0  0  0  0  0
   -0.8394   -1.7629    1.0222 H   0  0  0  0  0  0  0  0  0  0  0  0
  1  2  1  0
  2  3  1  0
  3  4  1  0
  4  5  1  0
  5  6  1  0
  4  7  1  0
  7  8  2  0
  7  9  1  0
  6  2  1  0
  9  2  1  0
  1 10  1  0
  1 11  1  0
  1 12  1  0
  3 13  1  0
  3 14  1  0
  4 15  1  0
  5 16  1  0
  5 17  1  0
  9 18  1  0
  9 19  1  0
M  END
$$$$
