
     RDKit          3D

 19 18  0  0  0  0  0  0  0  0999 V2000
   -5.1977    1.6689    2.3808 C   0  0  0  0  0  0  0  0  0  0  0  0
   -4.6048    0.8562    1.2279 C   0  0  0  0  0  0  0  0  0  0  0  0
   -3.0772    0.7428    1.3010 C   0  0  0  0  0  0  0  0  0  0  0  0
   -2.6398    0.1610    2.5186 O   0  0  0  0  0  0  0  0  0  0  0  0
   -2.5148   -0.0229    0.0799 C   0  0  0  0  0  0  0  0  0  0  0  0
   -1.0645   -0.1195    0.0668 C   0  0  0  0  0  0  0  0  0  0  0  0
    0.1408   -0.1962    0.0434 C   0  0  0  0  0  0  0  0  0  0  0  0
    1.5779   -0.2635    0.0568 C   0  0  0  0  0  0  0  0  0  0  0  0
    2.2438   -0.9251   -0.7073 O   0  0  0  0  0  0  0  0  0  0  0  0
   -4.8988    1.2468    3.3436 H   0  0  0  0  0  0  0  0  0  0  0  0
   -4.8470    2.7061    2.3506 H   0  0  0  0  0  0  0  0  0  0  0  0
   -6.2902    1.6832    2.3323 H   0  0  0  0  0  0  0  0  0  0  0  0
   -5.0309   -0.1584    1.2248 H   0  0  0  0  0  0  0  0  0  0  0  0
   -4.8826    1.3053    0.2661 H   0  0  0  0  0  0  0  0  0  0  0  0
   -2.6394    1.7482    1.3056 H   0  0  0  0  0  0  0  0  0  0  0  0
   -3.0215   -0.7223    2.5829 H   0  0  0  0  0  0  0  0  0  0  0  0
   -2.9468   -1.0341    0.0576 H   0  0  0  0  0  0  0  0  0  0  0  0
   -2.8500    0.4658   -0.8443 H   0  0  0  0  0  0  0  0  0  0  0  0
    2.0513    0.3559    0.8459 H   0  0  0  0  0  0  0  0  0  0  0  0
  1  2  1  0
  2  3  1  0
  3  4  1  0
  3  5  1  0
  5  6  1  0
  6  7  3  0
  7  8  1  0
  8  9  2  0
  1 10  1  0
  1 11  1  0
  1 12  1  0
  2 13  1  0
  2 14  1  0
  3 15  1  0
  4 16  1  0
  5 17  1  0
  5 18  1  0
  8 19  1  0
M  END
$$$$
