gdb 3252	2.3255631	1.736269	1.5141471	2.7054	74.26	-0.23285	0.04819	0.28104	992.3354	0.156825	-422.512438	-422.504389	-422.503445	-422.544486	31.43
 OpenBabel02181911413D

 19 21  0  0  1  0  0  0  0  0999 V2000
   -2.6872    0.1888    3.8569 C   0  0  0  0  0  0  0  0  0  0  0  0
   -3.0384    0.0452    2.4053 C   0  0  1  0  0  0  0  0  0  0  0  0
   -4.3574   -0.5328    1.8015 C   0  0  1  0  0  0  0  0  0  0  0  0
   -4.5845    0.7821    1.0248 C   0  0  0  0  0  0  0  0  0  0  0  0
   -3.1100    1.1815    1.2931 C   0  0  2  0  0  0  0  0  0  0  0  0
   -2.1035    0.3680    0.4335 C   0  0  1  0  0  0  0  0  0  0  0  0
   -0.7734    0.8409    0.5157 O   0  0  0  0  0  0  0  0  0  0  0  0
   -2.3670   -0.8717    1.3306 C   0  0  2  0  0  0  0  0  0  0  0  0
   -3.6258   -1.5004    1.0155 O   0  0  0  0  0  0  0  0  0  0  0  0
   -2.7377   -0.7772    4.3721 H   0  0  0  0  0  0  0  0  0  0  0  0
   -1.6721    0.5818    3.9908 H   0  0  0  0  0  0  0  0  0  0  0  0
   -3.3724    0.8762    4.3662 H   0  0  0  0  0  0  0  0  0  0  0  0
   -5.1827   -0.9925    2.3497 H   0  0  0  0  0  0  0  0  0  0  0  0
   -4.9203    0.6940   -0.0121 H   0  0  0  0  0  0  0  0  0  0  0  0
   -5.2685    1.4384    1.5734 H   0  0  0  0  0  0  0  0  0  0  0  0
   -2.8699    2.2341    1.4532 H   0  0  0  0  0  0  0  0  0  0  0  0
   -2.3257    0.2488   -0.6300 H   0  0  0  0  0  0  0  0  0  0  0  0
   -0.5727    1.0349    1.4381 H   0  0  0  0  0  0  0  0  0  0  0  0
   -1.5526   -1.5862    1.4801 H   0  0  0  0  0  0  0  0  0  0  0  0
  1 11  1  0  0  0  0
  1 12  1  0  0  0  0
  1 10  1  0  0  0  0
  2  1  1  1  0  0  0
  3 13  1  1  0  0  0
  3  2  1  0  0  0  0
  4  5  1  0  0  0  0
  4 15  1  0  0  0  0
  4  3  1  0  0  0  0
  5 16  1  1  0  0  0
  5  2  1  0  0  0  0
  6 17  1  6  0  0  0
  6  7  1  0  0  0  0
  6  5  1  0  0  0  0
  6  8  1  0  0  0  0
  7 18  1  0  0  0  0
  8 19  1  1  0  0  0
  8  2  1  0  0  0  0
  9  8  1  0  0  0  0
  9  3  1  0  0  0  0
 14  4  1  0  0  0  0
M TOR 0 0 1 2 3
M TOR 1 0 1 2 8
M TOR 2 0 1 2 12
M TOR 3 0 1 4 3
M TOR 4 0 1 4 5
M TOR 5 0 1 4 15
M TOR 6 0 1 7 5
M TOR 7 0 1 7 8
M TOR 8 0 1 7 18
M TOR 9 1 2 3 4
M TOR 10 1 2 3 13
M TOR 11 1 2 3 14
M TOR 12 1 2 8 7
M TOR 13 1 4 3 13
M TOR 14 1 4 3 14
M TOR 15 1 4 5 6
M TOR 16 1 4 5 7
M TOR 17 1 4 5 16
M TOR 18 1 7 5 6
M TOR 19 1 7 5 16
M TOR 20 2 1 0 9
M TOR 21 2 1 0 10
M TOR 22 2 1 0 11
M TOR 23 2 1 4 5
M TOR 24 2 1 4 15
M TOR 25 2 1 7 5
M TOR 26 2 1 7 18
M TOR 27 2 3 4 5
M TOR 28 2 3 4 15
M TOR 29 2 8 7 5
M TOR 30 2 8 7 18
M TOR 31 3 2 1 7
M TOR 32 3 2 8 7
M TOR 33 3 4 1 7
M TOR 34 3 4 5 6
M TOR 35 3 4 5 7
M TOR 36 3 4 5 16
M TOR 37 4 1 0 9
M TOR 38 4 1 0 10
M TOR 39 4 1 0 11
M TOR 40 4 1 2 8
M TOR 41 4 1 2 12
M TOR 42 4 1 7 8
M TOR 43 4 1 7 18
M TOR 44 4 3 2 8
M TOR 45 4 3 2 12
M TOR 46 4 5 6 17
M TOR 47 4 5 7 8
M TOR 48 4 5 7 18
M TOR 49 5 4 3 13
M TOR 50 5 4 3 14
M TOR 51 6 5 4 15
M TOR 52 6 5 7 8
M TOR 53 6 5 7 18
M TOR 54 7 1 0 9
M TOR 55 7 1 0 10
M TOR 56 7 1 0 11
M TOR 57 7 1 2 12
M TOR 58 7 1 4 15
M TOR 59 7 5 4 15
M TOR 60 7 5 6 17
M TOR 61 7 8 2 12
M TOR 62 8 2 3 13
M TOR 63 8 2 3 14
M TOR 64 8 7 5 16
M  END
$$$$
