gdb 6040	3.2144556	0.8014882	0.7233847	2.1087	77.97	-0.25366	0.01896	0.27262	1592.6301	0.154897	-422.499777	-422.489995	-422.489051	-422.535766	34.911
 OpenBabel02181911423D

 19 19  0  0  1  0  0  0  0  0999 V2000
    1.5413    0.5278   -0.0694 O   0  0  0  0  0  0  0  0  0  0  0  0
    0.1626    0.2866    0.1655 C   0  0  0  0  0  0  0  0  0  0  0  0
   -0.7446    1.0875   -0.7730 C   0  0  0  0  0  0  0  0  0  0  0  0
   -2.2180    0.8203   -0.5280 C   0  0  2  0  0  0  0  0  0  0  0  0
   -3.2475    1.7412   -1.2155 C   0  0  0  0  0  0  0  0  0  0  0  0
   -3.7057    2.0811    0.2288 C   0  0  1  0  0  0  0  0  0  0  0  0
   -2.6470    1.2640    0.7890 O   0  0  0  0  0  0  0  0  0  0  0  0
   -3.6480    3.4726    0.6438 C   0  0  0  0  0  0  0  0  0  0  0  0
   -3.6051    4.6279    0.9732 C   0  0  0  0  0  0  0  0  0  0  0  0
    1.7258    1.4376    0.1844 H   0  0  0  0  0  0  0  0  0  0  0  0
    0.0173   -0.7868   -0.0017 H   0  0  0  0  0  0  0  0  0  0  0  0
   -0.1144    0.4949    1.2086 H   0  0  0  0  0  0  0  0  0  0  0  0
   -0.5562    2.1612   -0.6385 H   0  0  0  0  0  0  0  0  0  0  0  0
   -0.4989    0.8391   -1.8134 H   0  0  0  0  0  0  0  0  0  0  0  0
   -2.4371   -0.2499   -0.6522 H   0  0  0  0  0  0  0  0  0  0  0  0
   -2.8110    2.5851   -1.7511 H   0  0  0  0  0  0  0  0  0  0  0  0
   -3.9964    1.2548   -1.8408 H   0  0  0  0  0  0  0  0  0  0  0  0
   -4.6881    1.6613    0.4827 H   0  0  0  0  0  0  0  0  0  0  0  0
   -3.5686    5.6467    1.2715 H   0  0  0  0  0  0  0  0  0  0  0  0
  1  2  1  0  0  0  0
  1 10  1  0  0  0  0
  2 12  1  0  0  0  0
  3 13  1  0  0  0  0
  3  4  1  0  0  0  0
  3  2  1  0  0  0  0
  4 15  1  6  0  0  0
  4  7  1  0  0  0  0
  5  4  1  0  0  0  0
  5  6  1  0  0  0  0
  6 18  1  1  0  0  0
  6  8  1  0  0  0  0
  6  7  1  0  0  0  0
  8  9  3  0  0  0  0
  9 19  1  0  0  0  0
 11  2  1  0  0  0  0
 14  3  1  0  0  0  0
 16  5  1  0  0  0  0
 17  5  1  0  0  0  0
M TOR 0 0 1 2 3
M TOR 1 0 1 2 12
M TOR 2 0 1 2 13
M TOR 3 1 2 3 4
M TOR 4 1 2 3 6
M TOR 5 1 2 3 14
M TOR 6 2 1 0 9
M TOR 7 2 3 4 5
M TOR 8 2 3 4 15
M TOR 9 2 3 4 16
M TOR 10 2 3 6 5
M TOR 11 3 2 1 10
M TOR 12 3 2 1 11
M TOR 13 3 4 5 6
M TOR 14 3 4 5 7
M TOR 15 3 4 5 17
M TOR 16 3 6 5 7
M TOR 17 3 6 5 17
M TOR 18 4 3 2 12
M TOR 19 4 3 2 13
M TOR 20 4 5 7 8
M TOR 21 5 4 3 14
M TOR 22 5 6 3 14
M TOR 23 5 7 8 18
M TOR 24 6 3 2 12
M TOR 25 6 3 2 13
M TOR 26 6 3 4 15
M TOR 27 6 3 4 16
M TOR 28 6 5 4 15
M TOR 29 6 5 4 16
M TOR 30 6 5 7 8
M TOR 31 7 5 4 15
M TOR 32 7 5 4 16
M TOR 33 8 7 5 17
M  END
$$$$
