gdb 5499	3.0001118	1.1367279	1.0014743	4.5491	75.85	-0.26789	0.00659	0.27448	1265.735	0.155439	-422.561125	-422.551905	-422.55096	-422.595129	33.544
 OpenBabel02181911423D

 19 20  0  0  1  0  0  0  0  0999 V2000
    1.4244    1.0988    0.1541 C   0  0  0  0  0  0  0  0  0  0  0  0
    1.0754   -0.3810   -0.0462 C   0  0  0  0  0  0  0  0  0  0  0  0
    1.6842   -0.9706   -1.3029 C   0  0  2  0  0  0  0  0  0  0  0  0
    1.9229   -2.4349   -1.3992 C   0  0  1  0  0  0  0  0  0  0  0  0
    2.2934   -2.7662   -2.7670 O   0  0  0  0  0  0  0  0  0  0  0  0
    3.4563   -2.0136   -2.6332 C   0  0  0  0  0  0  0  0  0  0  0  0
    4.3464   -1.9147   -3.4138 O   0  0  0  0  0  0  0  0  0  0  0  0
    3.1293   -1.5409   -1.2359 C   0  0  1  0  0  0  0  0  0  0  0  0
    4.1429   -1.3057   -0.1546 C   0  0  0  0  0  0  0  0  0  0  0  0
    0.9318    1.4995    1.0448 H   0  0  0  0  0  0  0  0  0  0  0  0
    2.5026    1.2440    0.2702 H   0  0  0  0  0  0  0  0  0  0  0  0
    1.1008    1.6961   -0.7047 H   0  0  0  0  0  0  0  0  0  0  0  0
    1.3824   -0.9616    0.8317 H   0  0  0  0  0  0  0  0  0  0  0  0
   -0.0138   -0.4941   -0.1146 H   0  0  0  0  0  0  0  0  0  0  0  0
    1.3890   -0.4733   -2.2251 H   0  0  0  0  0  0  0  0  0  0  0  0
    1.5218   -3.2303   -0.7860 H   0  0  0  0  0  0  0  0  0  0  0  0
    4.8028   -2.1715   -0.0405 H   0  0  0  0  0  0  0  0  0  0  0  0
    4.7693   -0.4422   -0.4012 H   0  0  0  0  0  0  0  0  0  0  0  0
    3.6708   -1.1130    0.8115 H   0  0  0  0  0  0  0  0  0  0  0  0
  1 11  1  0  0  0  0
  1 10  1  0  0  0  0
  2  1  1  0  0  0  0
  2 13  1  0  0  0  0
  3 15  1  6  0  0  0
  3  8  1  0  0  0  0
  3  2  1  0  0  0  0
  4  3  1  0  0  0  0
  4  8  1  0  0  0  0
  4 16  1  1  0  0  0
  5  6  1  0  0  0  0
  5  4  1  0  0  0  0
  6  8  1  0  0  0  0
  7  6  2  0  0  0  0
  8  9  1  1  0  0  0
  9 17  1  0  0  0  0
  9 19  1  0  0  0  0
 12  1  1  0  0  0  0
 14  2  1  0  0  0  0
 18  9  1  0  0  0  0
M TOR 0 0 1 2 3
M TOR 1 0 1 2 7
M TOR 2 0 1 2 14
M TOR 3 1 2 3 4
M TOR 4 1 2 3 7
M TOR 5 1 2 3 15
M TOR 6 1 2 7 5
M TOR 7 1 2 7 8
M TOR 8 2 1 0 9
M TOR 9 2 1 0 10
M TOR 10 2 1 0 11
M TOR 11 2 3 4 5
M TOR 12 2 3 7 5
M TOR 13 2 3 7 8
M TOR 14 2 7 3 4
M TOR 15 2 7 3 15
M TOR 16 2 7 5 4
M TOR 17 2 7 5 6
M TOR 18 2 7 8 16
M TOR 19 2 7 8 17
M TOR 20 2 7 8 18
M TOR 21 3 2 1 12
M TOR 22 3 2 1 13
M TOR 23 3 4 5 6
M TOR 24 3 4 5 7
M TOR 25 3 7 2 14
M TOR 26 3 7 5 6
M TOR 27 3 7 8 16
M TOR 28 3 7 8 17
M TOR 29 3 7 8 18
M TOR 30 4 3 2 14
M TOR 31 4 3 7 8
M TOR 32 4 5 7 8
M TOR 33 5 4 3 15
M TOR 34 5 7 2 14
M TOR 35 5 7 3 15
M TOR 36 5 7 8 16
M TOR 37 5 7 8 17
M TOR 38 5 7 8 18
M TOR 39 6 5 7 8
M TOR 40 7 2 1 12
M TOR 41 7 2 1 13
M TOR 42 8 7 2 14
M TOR 43 8 7 3 15
M  END
$$$$
