
     RDKit          3D

 19 21  0  0  0  0  0  0  0  0999 V2000
    0.4725    0.2152    0.7525 O   0  0  0  0  0  0  0  0  0  0  0  0
   -0.7982    0.6810    0.4146 C   0  0  0  0  0  0  0  0  0  0  0  0
   -2.0116   -0.0896    0.8734 C   0  0  0  0  0  0  0  0  0  0  0  0
   -1.6783    1.2580    1.4891 C   0  0  0  0  0  0  0  0  0  0  0  0
   -2.4412    2.4255    0.9193 C   0  0  0  0  0  0  0  0  0  0  0  0
   -1.8542    3.7107    1.2245 O   0  0  0  0  0  0  0  0  0  0  0  0
   -1.5577    3.9547   -0.1647 C   0  0  0  0  0  0  0  0  0  0  0  0
   -2.0459    2.5492   -0.5832 C   0  0  0  0  0  0  0  0  0  0  0  0
   -0.9469    1.5011   -0.8701 C   0  0  0  0  0  0  0  0  0  0  0  0
    0.6546   -0.5688    0.2231 H   0  0  0  0  0  0  0  0  0  0  0  0
   -2.8731   -0.1757    0.2160 H   0  0  0  0  0  0  0  0  0  0  0  0
   -1.8264   -0.9575    1.4966 H   0  0  0  0  0  0  0  0  0  0  0  0
   -1.3510    1.2934    2.5216 H   0  0  0  0  0  0  0  0  0  0  0  0
   -3.5103    2.4141    1.1660 H   0  0  0  0  0  0  0  0  0  0  0  0
   -2.1498    4.7885   -0.5638 H   0  0  0  0  0  0  0  0  0  0  0  0
   -0.4929    4.1612   -0.3313 H   0  0  0  0  0  0  0  0  0  0  0  0
   -2.8551    2.5402   -1.3134 H   0  0  0  0  0  0  0  0  0  0  0  0
   -1.1954    0.8733   -1.7336 H   0  0  0  0  0  0  0  0  0  0  0  0
    0.0133    1.9819   -1.0846 H   0  0  0  0  0  0  0  0  0  0  0  0
  1  2  1  0
  2  3  1  0
  3  4  1  0
  4  5  1  0
  5  6  1  0
  6  7  1  0
  7  8  1  0
  8  9  1  0
  4  2  1  0
  8  5  1  0
  9  2  1  0
  1 10  1  0
  3 11  1  0
  3 12  1  0
  4 13  1  0
  5 14  1  0
  7 15  1  0
  7 16  1  0
  8 17  1  0
  9 18  1  0
  9 19  1  0
M  END
$$$$
