gdb 4692	2.8488811	1.1661241	0.9203374	2.0491	76.93	-0.23037	-0.01522	0.21514999999999998	1292.8409	0.156295	-422.579852	-422.570582	-422.569638	-422.615087	33.067
 OpenBabel02181911413D

 19 19  0  0  1  0  0  0  0  0999 V2000
    1.4094    0.1907   -0.2576 O   0  0  0  0  0  0  0  0  0  0  0  0
    0.7326   -0.4507    0.8076 C   0  0  0  0  0  0  0  0  0  0  0  0
   -0.4286    0.3413    1.4301 C   0  0  0  0  0  0  0  0  0  0  0  0
   -1.2363   -0.2360    2.1213 O   0  0  0  0  0  0  0  0  0  0  0  0
   -0.4752    1.8378    1.1686 C   0  0  2  0  0  0  0  0  0  0  0  0
    0.7346    2.6022    1.7968 C   0  0  0  0  0  0  0  0  0  0  0  0
    0.1529    3.9678    2.2406 C   0  0  0  0  0  0  0  0  0  0  0  0
   -1.3300    3.6951    2.3372 C   0  0  0  0  0  0  0  0  0  0  0  0
   -1.6698    2.5426    1.7655 C   0  0  0  0  0  0  0  0  0  0  0  0
    0.8616    0.1260   -1.0456 H   0  0  0  0  0  0  0  0  0  0  0  0
    0.3533   -1.4453    0.5387 H   0  0  0  0  0  0  0  0  0  0  0  0
    1.4767   -0.6001    1.5999 H   0  0  0  0  0  0  0  0  0  0  0  0
   -0.4489    1.9707    0.0760 H   0  0  0  0  0  0  0  0  0  0  0  0
    1.0846    2.0581    2.6808 H   0  0  0  0  0  0  0  0  0  0  0  0
    1.5745    2.6818    1.1057 H   0  0  0  0  0  0  0  0  0  0  0  0
    0.5872    4.3154    3.1846 H   0  0  0  0  0  0  0  0  0  0  0  0
    0.3561    4.7551    1.5007 H   0  0  0  0  0  0  0  0  0  0  0  0
   -2.0231    4.3923    2.7951 H   0  0  0  0  0  0  0  0  0  0  0  0
   -2.6708    2.1363    1.6945 H   0  0  0  0  0  0  0  0  0  0  0  0
  1  2  1  0  0  0  0
  2  3  1  0  0  0  0
  2 12  1  0  0  0  0
  3  4  2  0  0  0  0
  5 13  1  6  0  0  0
  5  3  1  0  0  0  0
  5  9  1  0  0  0  0
  5  6  1  0  0  0  0
  6  7  1  0  0  0  0
  6 14  1  0  0  0  0
  7  8  1  0  0  0  0
  7 16  1  0  0  0  0
  8 18  1  0  0  0  0
  9  8  2  0  0  0  0
 10  1  1  0  0  0  0
 11  2  1  0  0  0  0
 15  6  1  0  0  0  0
 17  7  1  0  0  0  0
 19  9  1  0  0  0  0
M TOR 0 0 1 2 3
M TOR 1 0 1 2 4
M TOR 2 1 2 4 5
M TOR 3 1 2 4 8
M TOR 4 1 2 4 12
M TOR 5 2 1 0 9
M TOR 6 2 4 5 6
M TOR 7 2 4 5 13
M TOR 8 2 4 5 14
M TOR 9 2 4 8 7
M TOR 10 2 4 8 18
M TOR 11 3 2 1 10
M TOR 12 3 2 1 11
M TOR 13 3 2 4 5
M TOR 14 3 2 4 8
M TOR 15 3 2 4 12
M TOR 16 4 2 1 10
M TOR 17 4 2 1 11
M TOR 18 4 5 6 7
M TOR 19 4 5 6 15
M TOR 20 4 5 6 16
M TOR 21 4 8 7 6
M TOR 22 4 8 7 17
M TOR 23 5 4 8 7
M TOR 24 5 4 8 18
M TOR 25 5 6 7 8
M TOR 26 5 6 7 17
M TOR 27 6 5 4 8
M TOR 28 6 5 4 12
M TOR 29 6 7 8 18
M TOR 30 7 6 5 13
M TOR 31 7 6 5 14
M TOR 32 7 8 4 12
M TOR 33 8 4 5 13
M TOR 34 8 4 5 14
M TOR 35 8 7 6 15
M TOR 36 8 7 6 16
M  END
$$$$
