
     RDKit          3D

 19 20  0  0  0  0  0  0  0  0999 V2000
   -2.8057   -1.5127    1.5456 C   0  0  0  0  0  0  0  0  0  0  0  0
   -1.5975   -0.6689    1.1671 C   0  0  0  0  0  0  0  0  0  0  0  0
   -1.7693    0.4860    0.1472 C   0  0  0  0  0  0  0  0  0  0  0  0
   -1.6894   -0.5439   -0.9960 C   0  0  0  0  0  0  0  0  0  0  0  0
   -0.6594   -1.2013   -0.0023 C   0  0  0  0  0  0  0  0  0  0  0  0
   -0.1240   -2.6042   -0.1113 C   0  0  0  0  0  0  0  0  0  0  0  0
    0.3550   -0.0619    0.0286 C   0  0  0  0  0  0  0  0  0  0  0  0
    1.5488   -0.0578   -0.0108 O   0  0  0  0  0  0  0  0  0  0  0  0
   -0.4270    1.0647    0.1280 O   0  0  0  0  0  0  0  0  0  0  0  0
   -3.4790   -0.9409    2.1931 H   0  0  0  0  0  0  0  0  0  0  0  0
   -3.3859   -1.8549    0.6849 H   0  0  0  0  0  0  0  0  0  0  0  0
   -2.4889   -2.3990    2.1048 H   0  0  0  0  0  0  0  0  0  0  0  0
   -1.0621   -0.3629    2.0721 H   0  0  0  0  0  0  0  0  0  0  0  0
   -2.5051    1.2836    0.2240 H   0  0  0  0  0  0  0  0  0  0  0  0
   -2.5923   -1.1381   -1.1339 H   0  0  0  0  0  0  0  0  0  0  0  0
   -1.3160   -0.1853   -1.9578 H   0  0  0  0  0  0  0  0  0  0  0  0
    0.5675   -2.8186    0.7096 H   0  0  0  0  0  0  0  0  0  0  0  0
   -0.9304   -3.3430   -0.0857 H   0  0  0  0  0  0  0  0  0  0  0  0
    0.4298   -2.7342   -1.0463 H   0  0  0  0  0  0  0  0  0  0  0  0
  1  2  1  0
  2  3  1  0
  3  4  1  0
  4  5  1  0
  5  6  1  0
  5  7  1  0
  7  8  2  0
  7  9  1  0
  5  2  1  0
  9  3  1  0
  1 10  1  0
  1 11  1  0
  1 12  1  0
  2 13  1  0
  3 14  1  0
  4 15  1  0
  4 16  1  0
  6 17  1  0
  6 18  1  0
  6 19  1  0
M  END
$$$$
