
     RDKit          3D

 19 21  0  0  0  0  0  0  0  0999 V2000
   -2.7630   -0.8856   -2.0168 C   0  0  0  0  0  0  0  0  0  0  0  0
   -1.2991   -0.8370   -1.5880 C   0  0  0  0  0  0  0  0  0  0  0  0
   -1.2354   -0.5481   -0.1778 O   0  0  0  0  0  0  0  0  0  0  0  0
   -0.4035    0.5405    0.1470 C   0  0  0  0  0  0  0  0  0  0  0  0
   -0.9175    1.8276   -0.5270 C   0  0  0  0  0  0  0  0  0  0  0  0
   -0.3935    1.6059   -1.9352 C   0  0  0  0  0  0  0  0  0  0  0  0
    0.7815    0.6768   -1.7479 C   0  0  0  0  0  0  0  0  0  0  0  0
    0.9027    0.3517   -0.3775 O   0  0  0  0  0  0  0  0  0  0  0  0
   -0.4699    0.1541   -2.3943 C   0  0  0  0  0  0  0  0  0  0  0  0
   -3.3200   -1.5657   -1.3663 H   0  0  0  0  0  0  0  0  0  0  0  0
   -3.2226    0.1055   -1.9566 H   0  0  0  0  0  0  0  0  0  0  0  0
   -2.8498   -1.2447   -3.0479 H   0  0  0  0  0  0  0  0  0  0  0  0
   -0.8603   -1.8367   -1.7218 H   0  0  0  0  0  0  0  0  0  0  0  0
   -0.3370    0.5649    1.2347 H   0  0  0  0  0  0  0  0  0  0  0  0
   -2.0036    1.9001   -0.4425 H   0  0  0  0  0  0  0  0  0  0  0  0
   -0.4635    2.7176   -0.0788 H   0  0  0  0  0  0  0  0  0  0  0  0
   -0.3853    2.4095   -2.6608 H   0  0  0  0  0  0  0  0  0  0  0  0
    1.7355    0.7543   -2.2528 H   0  0  0  0  0  0  0  0  0  0  0  0
   -0.4504   -0.0298   -3.4640 H   0  0  0  0  0  0  0  0  0  0  0  0
  1  2  1  0
  2  3  1  0
  3  4  1  0
  4  5  1  0
  5  6  1  0
  6  7  1  0
  7  8  1  0
  7  9  1  0
  9  2  1  0
  8  4  1  0
  9  6  1  0
  1 10  1  0
  1 11  1  0
  1 12  1  0
  2 13  1  0
  4 14  1  0
  5 15  1  0
  5 16  1  0
  6 17  1  0
  7 18  1  0
  9 19  1  0
M  END
$$$$
