gdb 1751	2.4048784	1.7027689	1.642504	2.4665	73.76	-0.2281	0.07474	0.30284	960.1617	0.159083	-422.526116	-422.518714	-422.517769	-422.557451	29.979
 OpenBabel02181911403D

 19 21  0  0  1  0  0  0  0  0999 V2000
    0.5155    0.6232    0.3761 O   0  0  0  0  0  0  0  0  0  0  0  0
   -0.7879    0.4251    0.7808 C   0  0  2  0  0  0  0  0  0  0  0  0
   -1.5209    0.7086    2.0931 C   0  0  2  0  0  0  0  0  0  0  0  0
   -2.2915   -0.6017    1.9616 C   0  0  0  0  0  0  0  0  0  0  0  0
   -1.6392   -0.8422    0.5516 C   0  0  1  0  0  0  0  0  0  0  0  0
   -2.5574   -0.7634   -0.6786 C   0  0  0  0  0  0  0  0  0  0  0  0
   -2.8239    0.5657   -1.0947 O   0  0  0  0  0  0  0  0  0  0  0  0
   -2.9942    1.4901   -0.0278 C   0  0  0  0  0  0  0  0  0  0  0  0
   -1.7469    1.5631    0.8460 C   0  0  2  0  0  0  0  0  0  0  0  0
    1.0646   -0.0595    0.7780 H   0  0  0  0  0  0  0  0  0  0  0  0
   -1.1601    1.1562    3.0110 H   0  0  0  0  0  0  0  0  0  0  0  0
   -1.9705   -1.3531    2.6872 H   0  0  0  0  0  0  0  0  0  0  0  0
   -3.3848   -0.5443    1.9851 H   0  0  0  0  0  0  0  0  0  0  0  0
   -1.0607   -1.7692    0.5298 H   0  0  0  0  0  0  0  0  0  0  0  0
   -2.0903   -1.2480   -1.5420 H   0  0  0  0  0  0  0  0  0  0  0  0
   -3.4998   -1.2975   -0.4668 H   0  0  0  0  0  0  0  0  0  0  0  0
   -3.1773    2.4536   -0.5100 H   0  0  0  0  0  0  0  0  0  0  0  0
   -3.8913    1.2424    0.5629 H   0  0  0  0  0  0  0  0  0  0  0  0
   -1.2556    2.5290    0.9045 H   0  0  0  0  0  0  0  0  0  0  0  0
  1 10  1  0  0  0  0
  2  1  1  6  0  0  0
  2  9  1  0  0  0  0
  2  3  1  0  0  0  0
  3 11  1  1  0  0  0
  4 13  1  0  0  0  0
  4  3  1  0  0  0  0
  4 12  1  0  0  0  0
  5 14  1  6  0  0  0
  5  2  1  0  0  0  0
  5  4  1  0  0  0  0
  6 16  1  0  0  0  0
  6  5  1  0  0  0  0
  7  6  1  0  0  0  0
  7  8  1  0  0  0  0
  8 18  1  0  0  0  0
  8  9  1  0  0  0  0
  9 19  1  1  0  0  0
  9  3  1  0  0  0  0
 15  6  1  0  0  0  0
 17  8  1  0  0  0  0
M TOR 0 0 1 2 3
M TOR 1 0 1 2 8
M TOR 2 0 1 2 10
M TOR 3 0 1 4 3
M TOR 4 0 1 4 5
M TOR 5 0 1 4 13
M TOR 6 0 1 8 7
M TOR 7 0 1 8 18
M TOR 8 1 2 3 4
M TOR 9 1 2 3 11
M TOR 10 1 2 3 12
M TOR 11 1 2 8 7
M TOR 12 1 2 8 18
M TOR 13 1 4 3 11
M TOR 14 1 4 3 12
M TOR 15 1 4 5 6
M TOR 16 1 4 5 14
M TOR 17 1 4 5 15
M TOR 18 1 8 2 3
M TOR 19 1 8 2 10
M TOR 20 1 8 7 6
M TOR 21 1 8 7 16
M TOR 22 1 8 7 17
M TOR 23 2 1 0 9
M TOR 24 2 1 4 5
M TOR 25 2 1 4 13
M TOR 26 2 3 4 5
M TOR 27 2 3 4 13
M TOR 28 2 8 1 4
M TOR 29 2 8 7 6
M TOR 30 2 8 7 16
M TOR 31 2 8 7 17
M TOR 32 3 2 8 7
M TOR 33 3 2 8 18
M TOR 34 3 4 1 8
M TOR 35 3 4 5 6
M TOR 36 3 4 5 14
M TOR 37 3 4 5 15
M TOR 38 4 1 0 9
M TOR 39 4 1 2 10
M TOR 40 4 1 8 7
M TOR 41 4 1 8 18
M TOR 42 4 3 2 8
M TOR 43 4 3 2 10
M TOR 44 4 5 6 7
M TOR 45 5 4 1 8
M TOR 46 5 4 3 11
M TOR 47 5 4 3 12
M TOR 48 5 6 7 8
M TOR 49 5 6 7 16
M TOR 50 5 6 7 17
M TOR 51 6 5 4 13
M TOR 52 6 7 8 18
M TOR 53 7 6 5 14
M TOR 54 7 6 5 15
M TOR 55 7 8 2 10
M TOR 56 8 1 0 9
M TOR 57 8 1 4 13
M TOR 58 8 2 3 11
M TOR 59 8 2 3 12
M  END
$$$$
