
     RDKit          3D

 19 18  0  0  0  0  0  0  0  0999 V2000
    4.6963    0.4995   -1.4142 C   0  0  0  0  0  0  0  0  0  0  0  0
    3.1742    0.6227   -1.2747 C   0  0  0  0  0  0  0  0  0  0  0  0
    2.6959   -0.1724   -0.0338 C   0  0  0  0  0  0  0  0  0  0  0  0
    1.2680   -0.0593    0.2399 C   0  0  0  0  0  0  0  0  0  0  0  0
    0.0912    0.0646    0.4566 C   0  0  0  0  0  0  0  0  0  0  0  0
    2.7169    2.0912   -1.1908 C   0  0  0  0  0  0  0  0  0  0  0  0
    3.2596    2.7845   -0.0747 O   0  0  0  0  0  0  0  0  0  0  0  0
    3.0713    2.8952   -2.4339 C   0  0  0  0  0  0  0  0  0  0  0  0
    3.0645    2.4532   -3.5535 O   0  0  0  0  0  0  0  0  0  0  0  0
    5.1996    1.0132   -0.5893 H   0  0  0  0  0  0  0  0  0  0  0  0
    5.0046   -0.5506   -1.4031 H   0  0  0  0  0  0  0  0  0  0  0  0
    5.0398    0.9374   -2.3544 H   0  0  0  0  0  0  0  0  0  0  0  0
    2.6930    0.2048   -2.1657 H   0  0  0  0  0  0  0  0  0  0  0  0
    2.9609   -1.2278   -0.1686 H   0  0  0  0  0  0  0  0  0  0  0  0
    3.2611    0.1709    0.8426 H   0  0  0  0  0  0  0  0  0  0  0  0
   -0.9492    0.1504    0.6523 H   0  0  0  0  0  0  0  0  0  0  0  0
    1.6156    2.1020   -1.1465 H   0  0  0  0  0  0  0  0  0  0  0  0
    2.6760    2.6472    0.6768 H   0  0  0  0  0  0  0  0  0  0  0  0
    3.3174    3.9573   -2.2124 H   0  0  0  0  0  0  0  0  0  0  0  0
  1  2  1  0
  2  3  1  0
  3  4  1  0
  4  5  3  0
  2  6  1  0
  6  7  1  0
  6  8  1  0
  8  9  2  0
  1 10  1  0
  1 11  1  0
  1 12  1  0
  2 13  1  0
  3 14  1  0
  3 15  1  0
  5 16  1  0
  6 17  1  0
  7 18  1  0
  8 19  1  0
M  END
$$$$
