gdb 5702	2.8763244	1.2296505	1.0780045	2.6992	75.55	-0.24706	0.06587	0.31293	1186.406	0.156097	-422.492898	-422.484315	-422.483371	-422.526399	32.308
 OpenBabel02181911423D

 19 21  0  0  1  0  0  0  0  0999 V2000
    1.5026    0.0778   -0.3685 O   0  0  0  0  0  0  0  0  0  0  0  0
    0.1330    0.2752   -0.0365 C   0  0  0  0  0  0  0  0  0  0  0  0
   -0.7749    0.3635   -1.2428 C   0  0  2  0  0  0  0  0  0  0  0  0
   -2.1379   -0.3016   -1.2036 C   0  0  0  0  0  0  0  0  0  0  0  0
   -1.0464   -0.8646   -2.0615 C   0  0  1  0  0  0  0  0  0  0  0  0
   -0.9793   -0.9749   -3.6076 C   0  0  0  0  0  0  0  0  0  0  0  0
   -0.2621   -2.3230   -3.4059 C   0  0  2  0  0  0  0  0  0  0  0  0
   -1.1298   -3.1679   -2.6439 O   0  0  0  0  0  0  0  0  0  0  0  0
   -0.3315   -2.2006   -1.9414 C   0  0  2  0  0  0  0  0  0  0  0  0
    1.7859    0.8221   -0.9090 H   0  0  0  0  0  0  0  0  0  0  0  0
   -0.1431   -0.5910    0.5738 H   0  0  0  0  0  0  0  0  0  0  0  0
    0.0030    1.1675    0.5956 H   0  0  0  0  0  0  0  0  0  0  0  0
   -0.7119    1.3013   -1.7936 H   0  0  0  0  0  0  0  0  0  0  0  0
   -2.4156   -0.8377   -0.3011 H   0  0  0  0  0  0  0  0  0  0  0  0
   -2.9658    0.1965   -1.6972 H   0  0  0  0  0  0  0  0  0  0  0  0
   -1.9297   -1.0323   -4.1447 H   0  0  0  0  0  0  0  0  0  0  0  0
   -0.3413   -0.2102   -4.0600 H   0  0  0  0  0  0  0  0  0  0  0  0
    0.4734   -2.8032   -4.0403 H   0  0  0  0  0  0  0  0  0  0  0  0
    0.3337   -2.5599   -1.1664 H   0  0  0  0  0  0  0  0  0  0  0  0
  1  2  1  0  0  0  0
  2 11  1  0  0  0  0
  2 12  1  0  0  0  0
  3 13  1  6  0  0  0
  3  4  1  0  0  0  0
  3  2  1  0  0  0  0
  4 14  1  0  0  0  0
  5  6  1  6  0  0  0
  5  9  1  0  0  0  0
  5  3  1  0  0  0  0
  5  4  1  0  0  0  0
  6  7  1  0  0  0  0
  7 18  1  6  0  0  0
  7  8  1  0  0  0  0
  7  9  1  0  0  0  0
  8  9  1  0  0  0  0
  9 19  1  1  0  0  0
 10  1  1  0  0  0  0
 15  4  1  0  0  0  0
 16  6  1  0  0  0  0
 17  6  1  0  0  0  0
M TOR 0 0 1 2 3
M TOR 1 0 1 2 4
M TOR 2 0 1 2 12
M TOR 3 1 2 3 4
M TOR 4 1 2 3 13
M TOR 5 1 2 3 14
M TOR 6 1 2 4 5
M TOR 7 1 2 4 8
M TOR 8 2 1 0 9
M TOR 9 2 3 4 5
M TOR 10 2 3 4 8
M TOR 11 2 4 3 13
M TOR 12 2 4 3 14
M TOR 13 2 4 5 6
M TOR 14 2 4 5 15
M TOR 15 2 4 5 16
M TOR 16 2 4 8 6
M TOR 17 2 4 8 7
M TOR 18 2 4 8 18
M TOR 19 3 2 1 10
M TOR 20 3 2 1 11
M TOR 21 3 4 2 12
M TOR 22 3 4 5 6
M TOR 23 3 4 5 15
M TOR 24 3 4 5 16
M TOR 25 3 4 8 6
M TOR 26 3 4 8 7
M TOR 27 3 4 8 18
M TOR 28 4 2 1 10
M TOR 29 4 2 1 11
M TOR 30 4 5 6 7
M TOR 31 4 5 6 8
M TOR 32 4 5 6 17
M TOR 33 4 8 6 7
M TOR 34 4 8 6 17
M TOR 35 5 4 2 12
M TOR 36 5 4 3 13
M TOR 37 5 4 3 14
M TOR 38 5 4 8 7
M TOR 39 5 4 8 18
M TOR 40 5 6 7 8
M TOR 41 5 6 8 18
M TOR 42 6 7 8 18
M TOR 43 7 6 5 15
M TOR 44 7 6 5 16
M TOR 45 7 8 6 17
M TOR 46 8 4 2 12
M TOR 47 8 4 3 13
M TOR 48 8 4 3 14
M TOR 49 8 4 5 15
M TOR 50 8 4 5 16
M TOR 51 8 6 5 15
M TOR 52 8 6 5 16
M  END
$$$$
