gdb 2072	2.3817287	1.8484578	1.3122526	0.9654	74.34	-0.24815	0.07689	0.32504	1017.9831	0.157459	-422.538805	-422.53085	-422.529906	-422.570767	31.737
 OpenBabel02181911403D

 19 21  0  0  1  0  0  0  0  0999 V2000
   -1.7996   -0.2469    0.2094 O   0  0  0  0  0  0  0  0  0  0  0  0
   -0.8676   -0.5525   -0.7792 C   0  0  1  0  0  0  0  0  0  0  0  0
   -0.8429   -1.9404   -1.3790 C   0  0  0  0  0  0  0  0  0  0  0  0
   -1.2874   -0.7541   -2.2110 C   0  0  2  0  0  0  0  0  0  0  0  0
   -0.2424   -0.1078   -3.1160 C   0  0  0  0  0  0  0  0  0  0  0  0
    1.0028    0.0858   -2.2150 C   0  0  0  0  0  0  0  0  0  0  0  0
    0.4293    0.2149   -0.8074 C   0  0  1  0  0  0  0  0  0  0  0  0
    0.6436    1.3763    0.0613 C   0  0  0  0  0  0  0  0  0  0  0  0
    1.3009    0.1247    0.3221 O   0  0  0  0  0  0  0  0  0  0  0  0
   -1.4981   -0.6626    1.0256 H   0  0  0  0  0  0  0  0  0  0  0  0
    0.1011   -2.4337   -1.5867 H   0  0  0  0  0  0  0  0  0  0  0  0
   -1.6336   -2.5983   -1.0357 H   0  0  0  0  0  0  0  0  0  0  0  0
   -2.3355   -0.6933   -2.4801 H   0  0  0  0  0  0  0  0  0  0  0  0
   -0.0206   -0.7055   -4.0061 H   0  0  0  0  0  0  0  0  0  0  0  0
   -0.6145    0.8633   -3.4609 H   0  0  0  0  0  0  0  0  0  0  0  0
    1.6591   -0.7900   -2.2548 H   0  0  0  0  0  0  0  0  0  0  0  0
    1.6056    0.9499   -2.5023 H   0  0  0  0  0  0  0  0  0  0  0  0
    1.2961    2.1820   -0.2740 H   0  0  0  0  0  0  0  0  0  0  0  0
   -0.1240    1.6579    0.7783 H   0  0  0  0  0  0  0  0  0  0  0  0
  1 10  1  0  0  0  0
  2  1  1  1  0  0  0
  3 12  1  0  0  0  0
  3  2  1  0  0  0  0
  4 13  1  6  0  0  0
  4  3  1  0  0  0  0
  4  2  1  0  0  0  0
  5  6  1  0  0  0  0
  5  4  1  0  0  0  0
  6  7  1  0  0  0  0
  7  2  1  0  0  0  0
  7  8  1  0  0  0  0
  7  9  1  1  0  0  0
  8  9  1  0  0  0  0
  8 19  1  0  0  0  0
 11  3  1  0  0  0  0
 14  5  1  0  0  0  0
 15  5  1  0  0  0  0
 16  6  1  0  0  0  0
 17  6  1  0  0  0  0
 18  8  1  0  0  0  0
M TOR 0 0 1 2 3
M TOR 1 0 1 2 10
M TOR 2 0 1 2 11
M TOR 3 0 1 3 4
M TOR 4 0 1 3 12
M TOR 5 0 1 6 5
M TOR 6 0 1 6 7
M TOR 7 0 1 6 8
M TOR 8 1 2 3 4
M TOR 9 1 2 3 12
M TOR 10 1 3 2 10
M TOR 11 1 3 2 11
M TOR 12 1 3 4 5
M TOR 13 1 3 4 13
M TOR 14 1 3 4 14
M TOR 15 1 6 5 4
M TOR 16 1 6 5 15
M TOR 17 1 6 5 16
M TOR 18 1 6 7 8
M TOR 19 1 6 7 17
M TOR 20 1 6 7 18
M TOR 21 2 1 0 9
M TOR 22 2 1 6 5
M TOR 23 2 1 6 7
M TOR 24 2 1 6 8
M TOR 25 2 3 1 6
M TOR 26 2 3 4 5
M TOR 27 2 3 4 13
M TOR 28 2 3 4 14
M TOR 29 3 1 0 9
M TOR 30 3 1 6 5
M TOR 31 3 1 6 7
M TOR 32 3 1 6 8
M TOR 33 3 4 5 6
M TOR 34 3 4 5 15
M TOR 35 3 4 5 16
M TOR 36 4 3 1 6
M TOR 37 4 3 2 10
M TOR 38 4 3 2 11
M TOR 39 4 5 6 7
M TOR 40 4 5 6 8
M TOR 41 5 4 3 12
M TOR 42 5 6 7 8
M TOR 43 5 6 7 17
M TOR 44 5 6 7 18
M TOR 45 6 1 0 9
M TOR 46 6 1 2 10
M TOR 47 6 1 2 11
M TOR 48 6 1 3 12
M TOR 49 6 5 4 13
M TOR 50 6 5 4 14
M TOR 51 6 8 7 17
M TOR 52 6 8 7 18
M TOR 53 7 6 5 15
M TOR 54 7 6 5 16
M TOR 55 8 6 5 15
M TOR 56 8 6 5 16
M  END
$$$$
