gdb 5575	3.1905783	1.5247911	1.3917966	1.6345	74.46	-0.22801	0.0673	0.29530999999999996	1011.7386	0.157823	-422.493044	-422.485433	-422.484489	-422.525348	29.239
 OpenBabel02181911423D

 19 21  0  0  1  0  0  0  0  0999 V2000
    1.4084   -0.0185   -0.0816 C   0  0  0  0  0  0  0  0  0  0  0  0
    0.0047   -0.0570    0.0667 O   0  0  0  0  0  0  0  0  0  0  0  0
   -0.4677    0.7244    1.1212 C   0  0  2  0  0  0  0  0  0  0  0  0
   -1.9975    0.9234    1.1565 C   0  0  2  0  0  0  0  0  0  0  0  0
   -2.5481    1.3998   -0.2131 C   0  0  0  0  0  0  0  0  0  0  0  0
   -1.9571    2.8024    0.0548 C   0  0  2  0  0  0  0  0  0  0  0  0
   -0.5299    2.8398   -0.1857 O   0  0  0  0  0  0  0  0  0  0  0  0
   -0.2616    2.2696    1.1085 C   0  0  1  0  0  0  0  0  0  0  0  0
   -1.7427    2.4315    1.5529 C   0  0  2  0  0  0  0  0  0  0  0  0
    1.9235   -0.3569    0.8314 H   0  0  0  0  0  0  0  0  0  0  0  0
    1.6649   -0.6946   -0.9004 H   0  0  0  0  0  0  0  0  0  0  0  0
    1.7619    0.9912   -0.3313 H   0  0  0  0  0  0  0  0  0  0  0  0
   -0.1150    0.3436    2.0970 H   0  0  0  0  0  0  0  0  0  0  0  0
   -2.5866    0.2137    1.7358 H   0  0  0  0  0  0  0  0  0  0  0  0
   -2.2011    0.8795   -1.1078 H   0  0  0  0  0  0  0  0  0  0  0  0
   -3.6423    1.4339   -0.1996 H   0  0  0  0  0  0  0  0  0  0  0  0
   -2.4586    3.6896   -0.3368 H   0  0  0  0  0  0  0  0  0  0  0  0
    0.6211    2.7061    1.5802 H   0  0  0  0  0  0  0  0  0  0  0  0
   -2.1136    2.9586    2.4268 H   0  0  0  0  0  0  0  0  0  0  0  0
  1  2  1  0  0  0  0
  1 10  1  0  0  0  0
  2  3  1  0  0  0  0
  3  4  1  0  0  0  0
  3 13  1  1  0  0  0
  4  9  1  0  0  0  0
  4 14  1  1  0  0  0
  5 16  1  0  0  0  0
  5  6  1  0  0  0  0
  5  4  1  0  0  0  0
  6 17  1  6  0  0  0
  6  9  1  0  0  0  0
  7  6  1  0  0  0  0
  7  8  1  0  0  0  0
  8  3  1  0  0  0  0
  8  9  1  0  0  0  0
  8 18  1  1  0  0  0
  9 19  1  1  0  0  0
 11  1  1  0  0  0  0
 12  1  1  0  0  0  0
 15  5  1  0  0  0  0
M TOR 0 0 1 2 3
M TOR 1 0 1 2 7
M TOR 2 0 1 2 12
M TOR 3 1 2 3 4
M TOR 4 1 2 3 8
M TOR 5 1 2 3 13
M TOR 6 1 2 7 6
M TOR 7 1 2 7 8
M TOR 8 1 2 7 17
M TOR 9 2 1 0 9
M TOR 10 2 1 0 10
M TOR 11 2 1 0 11
M TOR 12 2 3 4 5
M TOR 13 2 3 4 14
M TOR 14 2 3 4 15
M TOR 15 2 3 8 5
M TOR 16 2 3 8 7
M TOR 17 2 3 8 18
M TOR 18 2 7 6 5
M TOR 19 2 7 8 5
M TOR 20 2 7 8 18
M TOR 21 3 2 7 6
M TOR 22 3 2 7 17
M TOR 23 3 4 5 6
M TOR 24 3 4 5 8
M TOR 25 3 4 5 16
M TOR 26 3 8 5 6
M TOR 27 3 8 5 16
M TOR 28 3 8 7 6
M TOR 29 3 8 7 17
M TOR 30 4 3 2 7
M TOR 31 4 3 2 12
M TOR 32 4 3 8 7
M TOR 33 4 3 8 18
M TOR 34 4 5 6 7
M TOR 35 4 5 8 7
M TOR 36 4 5 8 18
M TOR 37 5 4 3 13
M TOR 38 5 6 7 8
M TOR 39 5 6 7 17
M TOR 40 5 8 3 13
M TOR 41 5 8 7 17
M TOR 42 6 5 4 14
M TOR 43 6 5 4 15
M TOR 44 6 5 8 18
M TOR 45 6 7 2 12
M TOR 46 6 7 8 18
M TOR 47 7 2 3 13
M TOR 48 7 6 5 16
M TOR 49 7 8 3 13
M TOR 50 7 8 5 16
M TOR 51 8 3 2 12
M TOR 52 8 3 4 14
M TOR 53 8 3 4 15
M TOR 54 8 5 4 14
M TOR 55 8 5 4 15
M TOR 56 8 7 2 12
M  END
$$$$
