
     RDKit          3D

 19 21  0  0  0  0  0  0  0  0999 V2000
    0.3811    0.2240    0.4367 O   0  0  0  0  0  0  0  0  0  0  0  0
   -0.9441    0.4824    0.8425 C   0  0  0  0  0  0  0  0  0  0  0  0
   -2.0786   -0.3544    0.1752 C   0  0  0  0  0  0  0  0  0  0  0  0
   -2.7881    0.9627   -0.2229 C   0  0  0  0  0  0  0  0  0  0  0  0
   -3.8327    1.3351    0.6793 O   0  0  0  0  0  0  0  0  0  0  0  0
   -3.4590    2.5006    1.3735 C   0  0  0  0  0  0  0  0  0  0  0  0
   -3.1239    3.7360    0.5778 C   0  0  0  0  0  0  0  0  0  0  0  0
   -2.0185    2.8448    1.1225 C   0  0  0  0  0  0  0  0  0  0  0  0
   -1.5183    1.7688    0.1890 C   0  0  0  0  0  0  0  0  0  0  0  0
    0.6611   -0.6079    0.8319 H   0  0  0  0  0  0  0  0  0  0  0  0
   -1.0281    0.5080    1.9381 H   0  0  0  0  0  0  0  0  0  0  0  0
   -1.6960   -0.8946   -0.6954 H   0  0  0  0  0  0  0  0  0  0  0  0
   -2.6587   -1.0285    0.8085 H   0  0  0  0  0  0  0  0  0  0  0  0
   -3.1492    1.0393   -1.2521 H   0  0  0  0  0  0  0  0  0  0  0  0
   -3.9422    2.5727    2.3409 H   0  0  0  0  0  0  0  0  0  0  0  0
   -3.3196    3.7288   -0.4898 H   0  0  0  0  0  0  0  0  0  0  0  0
   -3.2688    4.6990    1.0562 H   0  0  0  0  0  0  0  0  0  0  0  0
   -1.3666    3.2139    1.9067 H   0  0  0  0  0  0  0  0  0  0  0  0
   -0.8936    2.1134   -0.6381 H   0  0  0  0  0  0  0  0  0  0  0  0
  1  2  1  0
  2  3  1  0
  3  4  1  0
  4  5  1  0
  5  6  1  0
  6  7  1  0
  7  8  1  0
  8  9  1  0
  9  2  1  0
  9  4  1  0
  8  6  1  0
  1 10  1  0
  2 11  1  0
  3 12  1  0
  3 13  1  0
  4 14  1  0
  6 15  1  0
  7 16  1  0
  7 17  1  0
  8 18  1  0
  9 19  1  0
M  END
$$$$
