gdb 981	5.2772055	0.7021373	0.6585039	3.8705	79.39	-0.23976	-0.01712	0.22264	1673.4834	0.155651	-422.566696	-422.557522	-422.556578	-422.602319	32.006
 OpenBabel02181911403D

 19 19  0  0  1  0  0  0  0  0999 V2000
    0.2687   -1.1184   -0.2046 O   0  0  0  0  0  0  0  0  0  0  0  0
    0.3944    0.0527    0.0465 C   0  0  0  0  0  0  0  0  0  0  0  0
   -0.2846    0.7791    1.1813 C   0  0  0  0  0  0  0  0  0  0  0  0
   -1.1109    1.9764    0.6824 C   0  0  0  0  0  0  0  0  0  0  0  0
   -1.6521    2.8284    1.8398 C   0  0  1  0  0  0  0  0  0  0  0  0
   -0.5684    3.3152    2.6397 O   0  0  0  0  0  0  0  0  0  0  0  0
   -0.6067    4.7381    2.7258 C   0  0  0  0  0  0  0  0  0  0  0  0
   -1.7858    5.1482    1.8899 C   0  0  0  0  0  0  0  0  0  0  0  0
   -2.3830    4.0691    1.3992 C   0  0  0  0  0  0  0  0  0  0  0  0
    1.0505    0.7029   -0.5810 H   0  0  0  0  0  0  0  0  0  0  0  0
   -0.9006    0.0666    1.7380 H   0  0  0  0  0  0  0  0  0  0  0  0
    0.4941    1.1646    1.8529 H   0  0  0  0  0  0  0  0  0  0  0  0
   -0.4951    2.6175    0.0395 H   0  0  0  0  0  0  0  0  0  0  0  0
   -1.9549    1.6241    0.0765 H   0  0  0  0  0  0  0  0  0  0  0  0
   -2.2941    2.1891    2.4702 H   0  0  0  0  0  0  0  0  0  0  0  0
   -0.7127    5.0460    3.7782 H   0  0  0  0  0  0  0  0  0  0  0  0
    0.3412    5.1621    2.3599 H   0  0  0  0  0  0  0  0  0  0  0  0
   -2.0763    6.1803    1.7407 H   0  0  0  0  0  0  0  0  0  0  0  0
   -3.2623    4.0385    0.7684 H   0  0  0  0  0  0  0  0  0  0  0  0
  1  2  2  0  0  0  0
  2  3  1  0  0  0  0
  3 11  1  0  0  0  0
  3 12  1  0  0  0  0
  4  3  1  0  0  0  0
  4  5  1  0  0  0  0
  5 15  1  1  0  0  0
  5  6  1  0  0  0  0
  6  7  1  0  0  0  0
  7 16  1  0  0  0  0
  8  7  1  0  0  0  0
  9  5  1  0  0  0  0
  9  8  2  0  0  0  0
 10  2  1  0  0  0  0
 13  4  1  0  0  0  0
 14  4  1  0  0  0  0
 17  7  1  0  0  0  0
 18  8  1  0  0  0  0
 19  9  1  0  0  0  0
M TOR 0 0 1 2 3
M TOR 1 0 1 2 10
M TOR 2 0 1 2 11
M TOR 3 1 2 3 4
M TOR 4 1 2 3 12
M TOR 5 1 2 3 13
M TOR 6 2 3 4 5
M TOR 7 2 3 4 8
M TOR 8 2 3 4 14
M TOR 9 3 2 1 9
M TOR 10 3 4 5 6
M TOR 11 3 4 8 7
M TOR 12 3 4 8 18
M TOR 13 4 3 2 10
M TOR 14 4 3 2 11
M TOR 15 4 5 6 7
M TOR 16 4 5 6 15
M TOR 17 4 5 6 16
M TOR 18 4 8 7 6
M TOR 19 4 8 7 17
M TOR 20 5 4 3 12
M TOR 21 5 4 3 13
M TOR 22 5 4 8 7
M TOR 23 5 4 8 18
M TOR 24 5 6 7 8
M TOR 25 5 6 7 17
M TOR 26 6 5 4 8
M TOR 27 6 5 4 14
M TOR 28 6 7 8 18
M TOR 29 7 8 4 14
M TOR 30 8 4 3 12
M TOR 31 8 4 3 13
M TOR 32 8 7 6 15
M TOR 33 8 7 6 16
M  END
$$$$
