
     RDKit          3D

 19 21  0  0  0  0  0  0  0  0999 V2000
    0.1983    0.0502   -0.0695 O   0  0  0  0  0  0  0  0  0  0  0  0
   -0.7050    0.2603    0.9836 C   0  0  0  0  0  0  0  0  0  0  0  0
   -0.4244    1.5363    1.7971 C   0  0  0  0  0  0  0  0  0  0  0  0
   -1.9438    1.8575    1.7814 C   0  0  0  0  0  0  0  0  0  0  0  0
   -2.1687    0.7693    0.6853 C   0  0  0  0  0  0  0  0  0  0  0  0
   -3.1794   -0.3432    1.0178 C   0  0  0  0  0  0  0  0  0  0  0  0
   -2.3541   -1.3814    1.7671 C   0  0  0  0  0  0  0  0  0  0  0  0
   -1.4010   -2.0544    0.9254 O   0  0  0  0  0  0  0  0  0  0  0  0
   -0.9324   -1.0078    1.7938 C   0  0  0  0  0  0  0  0  0  0  0  0
   -0.0369   -0.8004   -0.4630 H   0  0  0  0  0  0  0  0  0  0  0  0
    0.0632    1.4154    2.7684 H   0  0  0  0  0  0  0  0  0  0  0  0
    0.1589    2.2365    1.1949 H   0  0  0  0  0  0  0  0  0  0  0  0
   -2.4415    1.6064    2.7228 H   0  0  0  0  0  0  0  0  0  0  0  0
   -2.2208    2.8779    1.5108 H   0  0  0  0  0  0  0  0  0  0  0  0
   -2.2794    1.1939   -0.3137 H   0  0  0  0  0  0  0  0  0  0  0  0
   -4.0007    0.0274    1.6411 H   0  0  0  0  0  0  0  0  0  0  0  0
   -3.6257   -0.7977    0.1270 H   0  0  0  0  0  0  0  0  0  0  0  0
   -2.8032   -2.0128    2.5301 H   0  0  0  0  0  0  0  0  0  0  0  0
   -0.2342   -1.3182    2.5686 H   0  0  0  0  0  0  0  0  0  0  0  0
  1  2  1  0
  2  3  1  0
  3  4  1  0
  4  5  1  0
  5  6  1  0
  6  7  1  0
  7  8  1  0
  8  9  1  0
  5  2  1  0
  9  7  1  0
  9  2  1  0
  1 10  1  0
  3 11  1  0
  3 12  1  0
  4 13  1  0
  4 14  1  0
  5 15  1  0
  6 16  1  0
  6 17  1  0
  7 18  1  0
  9 19  1  0
M  END
$$$$
