
     RDKit          3D

 19 20  0  0  0  0  0  0  0  0999 V2000
    0.4423   -1.0201    0.0080 O   0  0  0  0  0  0  0  0  0  0  0  0
    0.4590    0.1717    0.1759 C   0  0  0  0  0  0  0  0  0  0  0  0
   -0.3018    0.9060    1.2634 C   0  0  0  0  0  0  0  0  0  0  0  0
   -1.1220    2.0586    0.7200 C   0  0  0  0  0  0  0  0  0  0  0  0
   -1.3630    3.3010    1.5679 C   0  0  0  0  0  0  0  0  0  0  0  0
   -0.5406    3.3868    0.3065 C   0  0  0  0  0  0  0  0  0  0  0  0
   -1.1419    3.8527   -0.8694 O   0  0  0  0  0  0  0  0  0  0  0  0
   -2.3608    3.1298   -1.0542 C   0  0  0  0  0  0  0  0  0  0  0  0
   -2.1890    1.7730   -0.3349 C   0  0  0  0  0  0  0  0  0  0  0  0
    1.0625    0.8363   -0.4852 H   0  0  0  0  0  0  0  0  0  0  0  0
   -0.9194    0.1816    1.8050 H   0  0  0  0  0  0  0  0  0  0  0  0
    0.4448    1.2963    1.9697 H   0  0  0  0  0  0  0  0  0  0  0  0
   -2.3515    3.7476    1.5876 H   0  0  0  0  0  0  0  0  0  0  0  0
   -0.8300    3.3621    2.5112 H   0  0  0  0  0  0  0  0  0  0  0  0
    0.5151    3.6298    0.3473 H   0  0  0  0  0  0  0  0  0  0  0  0
   -3.2012    3.6940   -0.6274 H   0  0  0  0  0  0  0  0  0  0  0  0
   -2.5334    3.0341   -2.1292 H   0  0  0  0  0  0  0  0  0  0  0  0
   -3.1339    1.4139    0.0843 H   0  0  0  0  0  0  0  0  0  0  0  0
   -1.8225    1.0061   -1.0263 H   0  0  0  0  0  0  0  0  0  0  0  0
  1  2  2  0
  2  3  1  0
  3  4  1  0
  4  5  1  0
  5  6  1  0
  6  7  1  0
  7  8  1  0
  8  9  1  0
  6  4  1  0
  9  4  1  0
  2 10  1  0
  3 11  1  0
  3 12  1  0
  5 13  1  0
  5 14  1  0
  6 15  1  0
  8 16  1  0
  8 17  1  0
  9 18  1  0
  9 19  1  0
M  END
$$$$
