
     RDKit          3D

 19 21  0  0  0  0  0  0  0  0999 V2000
    0.6718    0.9300    0.4827 C   0  0  0  0  0  0  0  0  0  0  0  0
    0.9314   -0.5551    0.3362 C   0  0  0  0  0  0  0  0  0  0  0  0
    2.2282   -1.1698    0.8572 C   0  0  0  0  0  0  0  0  0  0  0  0
    3.1511   -0.3009    1.4521 O   0  0  0  0  0  0  0  0  0  0  0  0
    1.9770   -1.0717   -0.6032 C   0  0  0  0  0  0  0  0  0  0  0  0
    2.8348   -0.4503   -1.7138 C   0  0  0  0  0  0  0  0  0  0  0  0
    1.8025   -0.9402   -2.7608 C   0  0  0  0  0  0  0  0  0  0  0  0
    2.0836   -2.0830   -1.7533 C   0  0  0  0  0  0  0  0  0  0  0  0
    3.5335   -1.7579   -1.8445 O   0  0  0  0  0  0  0  0  0  0  0  0
    0.1877    1.1460    1.4406 H   0  0  0  0  0  0  0  0  0  0  0  0
    1.6076    1.4918    0.4523 H   0  0  0  0  0  0  0  0  0  0  0  0
    0.0175    1.2989   -0.3145 H   0  0  0  0  0  0  0  0  0  0  0  0
    0.0545   -1.1864    0.4658 H   0  0  0  0  0  0  0  0  0  0  0  0
    2.1539   -2.1496    1.3312 H   0  0  0  0  0  0  0  0  0  0  0  0
    4.0258   -0.5540    1.1377 H   0  0  0  0  0  0  0  0  0  0  0  0
    3.4471    0.4510   -1.7059 H   0  0  0  0  0  0  0  0  0  0  0  0
    0.8097   -0.4842   -2.7562 H   0  0  0  0  0  0  0  0  0  0  0  0
    2.2052   -1.0997   -3.7620 H   0  0  0  0  0  0  0  0  0  0  0  0
    1.7986   -3.1346   -1.7901 H   0  0  0  0  0  0  0  0  0  0  0  0
  1  2  1  0
  2  3  1  0
  3  4  1  0
  3  5  1  0
  5  6  1  0
  6  7  1  0
  7  8  1  0
  8  9  1  0
  5  2  1  0
  8  5  1  0
  9  6  1  0
  1 10  1  0
  1 11  1  0
  1 12  1  0
  2 13  1  0
  3 14  1  0
  4 15  1  0
  6 16  1  0
  7 17  1  0
  7 18  1  0
  8 19  1  0
M  END
$$$$
