gdb 5539	1.9690386	1.5896772	1.0390329	3.269	76.55	-0.25134	-0.02776	0.22358	1185.5168	0.156102	-422.504273	-422.495455	-422.494511	-422.538597	32.061
 OpenBabel02181911423D

 19 20  0  0  1  0  0  0  0  0999 V2000
   -2.7850   -2.8141   -2.5135 O   0  0  0  0  0  0  0  0  0  0  0  0
   -2.4923   -2.0049   -1.3782 C   0  0  0  0  0  0  0  0  0  0  0  0
   -3.7552   -1.7346   -0.5704 C   0  0  1  0  0  0  0  0  0  0  0  0
   -4.2403   -2.6662    0.5929 C   0  0  2  0  0  0  0  0  0  0  0  0
   -5.2092   -1.5089    0.9787 C   0  0  0  0  0  0  0  0  0  0  0  0
   -3.8343   -0.8227    0.7035 C   0  0  1  0  0  0  0  0  0  0  0  0
   -3.2093   -1.9668    1.5491 C   0  0  2  0  0  0  0  0  0  0  0  0
   -1.7318   -2.2392    1.5829 C   0  0  0  0  0  0  0  0  0  0  0  0
   -0.8760   -1.4057    1.4139 O   0  0  0  0  0  0  0  0  0  0  0  0
   -3.0564   -3.6806   -2.1946 H   0  0  0  0  0  0  0  0  0  0  0  0
   -1.6852   -2.4498   -0.7866 H   0  0  0  0  0  0  0  0  0  0  0  0
   -2.1057   -1.0622   -1.7801 H   0  0  0  0  0  0  0  0  0  0  0  0
   -4.5477   -1.5126   -1.2940 H   0  0  0  0  0  0  0  0  0  0  0  0
   -4.4761   -3.7314    0.5491 H   0  0  0  0  0  0  0  0  0  0  0  0
   -6.0099   -1.2942    0.2678 H   0  0  0  0  0  0  0  0  0  0  0  0
   -5.5673   -1.4917    2.0111 H   0  0  0  0  0  0  0  0  0  0  0  0
   -3.5988    0.2389    0.7700 H   0  0  0  0  0  0  0  0  0  0  0  0
   -3.5359   -1.9949    2.6007 H   0  0  0  0  0  0  0  0  0  0  0  0
   -1.4615   -3.2858    1.8625 H   0  0  0  0  0  0  0  0  0  0  0  0
  1 10  1  0  0  0  0
  1  2  1  0  0  0  0
  2 11  1  0  0  0  0
  2  3  1  0  0  0  0
  3 13  1  6  0  0  0
  3  4  1  0  0  0  0
  3  6  1  0  0  0  0
  4 14  1  6  0  0  0
  4  5  1  0  0  0  0
  4  7  1  0  0  0  0
  5 16  1  0  0  0  0
  6 17  1  1  0  0  0
  6  5  1  0  0  0  0
  6  7  1  0  0  0  0
  7  8  1  0  0  0  0
  7 18  1  1  0  0  0
  8 19  1  0  0  0  0
  9  8  2  0  0  0  0
 12  2  1  0  0  0  0
 15  5  1  0  0  0  0
M TOR 0 0 1 2 3
M TOR 1 0 1 2 5
M TOR 2 0 1 2 12
M TOR 3 1 2 3 4
M TOR 4 1 2 3 6
M TOR 5 1 2 3 13
M TOR 6 1 2 5 4
M TOR 7 1 2 5 6
M TOR 8 1 2 5 16
M TOR 9 2 1 0 9
M TOR 10 2 3 4 5
M TOR 11 2 3 4 14
M TOR 12 2 3 4 15
M TOR 13 2 3 6 5
M TOR 14 2 3 6 7
M TOR 15 2 3 6 17
M TOR 16 2 5 4 14
M TOR 17 2 5 4 15
M TOR 18 2 5 6 7
M TOR 19 2 5 6 17
M TOR 20 3 2 1 10
M TOR 21 3 2 1 11
M TOR 22 3 2 5 16
M TOR 23 3 4 5 6
M TOR 24 3 4 5 16
M TOR 25 3 6 5 16
M TOR 26 3 6 7 8
M TOR 27 3 6 7 18
M TOR 28 4 3 2 12
M TOR 29 4 3 6 7
M TOR 30 4 3 6 17
M TOR 31 4 5 2 12
M TOR 32 4 5 6 7
M TOR 33 4 5 6 17
M TOR 34 5 2 1 10
M TOR 35 5 2 1 11
M TOR 36 5 2 3 13
M TOR 37 5 4 3 13
M TOR 38 5 6 3 13
M TOR 39 5 6 7 8
M TOR 40 5 6 7 18
M TOR 41 6 3 2 12
M TOR 42 6 3 4 14
M TOR 43 6 3 4 15
M TOR 44 6 5 2 12
M TOR 45 6 5 4 14
M TOR 46 6 5 4 15
M TOR 47 7 6 3 13
M TOR 48 7 6 5 16
M TOR 49 8 7 6 17
M  END
$$$$
