gdb 5255	3.5593998	1.2501371	1.1737889	1.5306	74.12	-0.24159	0.06855	0.31013999999999997	1109.4516	0.158453	-422.528799	-422.52102	-422.520076	-422.56113	30.25
 OpenBabel02181911423D

 19 21  0  0  1  0  0  0  0  0999 V2000
    1.3383    0.6854   -0.0709 O   0  0  0  0  0  0  0  0  0  0  0  0
    0.2702   -0.1015    0.4419 C   0  0  0  0  0  0  0  0  0  0  0  0
   -0.8883    0.7275    0.9086 C   0  0  2  0  0  0  0  0  0  0  0  0
   -1.8428    1.5207    0.0077 C   0  0  0  0  0  0  0  0  0  0  0  0
   -2.9093    1.4231    1.1462 C   0  0  2  0  0  0  0  0  0  0  0  0
   -2.9018    2.5722    1.9792 O   0  0  0  0  0  0  0  0  0  0  0  0
   -1.5920    2.6548    2.5514 C   0  0  0  0  0  0  0  0  0  0  0  0
   -0.9675    1.2800    2.3332 C   0  0  1  0  0  0  0  0  0  0  0  0
   -2.0344    0.3486    1.8406 C   0  0  2  0  0  0  0  0  0  0  0  0
    1.5926    1.3071    0.6192 H   0  0  0  0  0  0  0  0  0  0  0  0
   -0.0369   -0.7477   -0.3885 H   0  0  0  0  0  0  0  0  0  0  0  0
    0.6103   -0.7605    1.2583 H   0  0  0  0  0  0  0  0  0  0  0  0
   -1.5604    2.5292   -0.3094 H   0  0  0  0  0  0  0  0  0  0  0  0
   -2.1291    0.9330   -0.8699 H   0  0  0  0  0  0  0  0  0  0  0  0
   -3.9388    1.2011    0.8703 H   0  0  0  0  0  0  0  0  0  0  0  0
   -1.0190    3.4620    2.0741 H   0  0  0  0  0  0  0  0  0  0  0  0
   -1.6893    2.8911    3.6175 H   0  0  0  0  0  0  0  0  0  0  0  0
   -0.2330    0.9114    3.0410 H   0  0  0  0  0  0  0  0  0  0  0  0
   -2.3192   -0.5949    2.2862 H   0  0  0  0  0  0  0  0  0  0  0  0
  1  2  1  0  0  0  0
  1 10  1  0  0  0  0
  2 12  1  0  0  0  0
  3  2  1  6  0  0  0
  3  9  1  0  0  0  0
  3  8  1  0  0  0  0
  4  3  1  0  0  0  0
  4  5  1  0  0  0  0
  5 15  1  6  0  0  0
  5  9  1  0  0  0  0
  5  6  1  0  0  0  0
  6  7  1  0  0  0  0
  7 17  1  0  0  0  0
  8  7  1  0  0  0  0
  8 18  1  1  0  0  0
  9 19  1  1  0  0  0
  9  8  1  0  0  0  0
 11  2  1  0  0  0  0
 13  4  1  0  0  0  0
 14  4  1  0  0  0  0
 16  7  1  0  0  0  0
M TOR 0 0 1 2 3
M TOR 1 0 1 2 7
M TOR 2 0 1 2 8
M TOR 3 1 2 3 4
M TOR 4 1 2 3 12
M TOR 5 1 2 3 13
M TOR 6 1 2 7 6
M TOR 7 1 2 7 8
M TOR 8 1 2 7 17
M TOR 9 1 2 8 4
M TOR 10 1 2 8 18
M TOR 11 2 1 0 9
M TOR 12 2 3 4 5
M TOR 13 2 3 4 8
M TOR 14 2 3 4 14
M TOR 15 2 7 6 5
M TOR 16 2 7 6 15
M TOR 17 2 7 6 16
M TOR 18 2 7 8 4
M TOR 19 2 7 8 18
M TOR 20 2 8 4 5
M TOR 21 2 8 4 14
M TOR 22 2 8 7 6
M TOR 23 2 8 7 17
M TOR 24 3 2 1 10
M TOR 25 3 2 1 11
M TOR 26 3 2 7 6
M TOR 27 3 2 7 8
M TOR 28 3 2 7 17
M TOR 29 3 2 8 18
M TOR 30 3 4 5 6
M TOR 31 3 4 8 7
M TOR 32 3 4 8 18
M TOR 33 4 3 2 7
M TOR 34 4 5 6 7
M TOR 35 4 5 6 15
M TOR 36 4 5 6 16
M TOR 37 4 8 7 6
M TOR 38 4 8 7 17
M TOR 39 5 4 3 12
M TOR 40 5 4 3 13
M TOR 41 5 4 8 7
M TOR 42 5 4 8 18
M TOR 43 5 6 7 8
M TOR 44 5 6 7 17
M TOR 45 6 5 4 8
M TOR 46 6 5 4 14
M TOR 47 6 7 8 18
M TOR 48 7 2 1 10
M TOR 49 7 2 1 11
M TOR 50 7 2 3 12
M TOR 51 7 2 3 13
M TOR 52 7 8 4 14
M TOR 53 8 2 1 10
M TOR 54 8 2 1 11
M TOR 55 8 2 3 12
M TOR 56 8 2 3 13
M TOR 57 8 4 3 12
M TOR 58 8 4 3 13
M TOR 59 8 7 6 15
M TOR 60 8 7 6 16
M  END
$$$$
