gdb 4311	3.5319324	1.2511837	0.9788327	2.7739	77.79	-0.23846	0.0133	0.25176	1194.3538	0.158303	-422.542039	-422.534098	-422.533153	-422.574246	30.955
 OpenBabel02181911413D

 19 20  0  0  1  0  0  0  0  0999 V2000
   -0.0191    1.4371    0.0951 O   0  0  0  0  0  0  0  0  0  0  0  0
    0.0091    0.0183    0.0274 C   0  0  2  0  0  0  0  0  0  0  0  0
    0.8548   -0.4674   -1.1765 C   0  0  0  0  0  0  0  0  0  0  0  0
    0.5033   -1.8595   -1.6531 C   0  0  0  0  0  3  0  0  0  0  0  0
   -0.4613   -2.5274   -1.0413 C   0  0  2  0  0  3  0  0  0  0  0  0
   -1.5120   -3.5739   -1.3173 C   0  0  0  0  0  0  0  0  0  0  0  0
   -2.4516   -2.7998   -0.5153 O   0  0  0  0  0  0  0  0  0  0  0  0
   -1.3686   -1.9872    0.0257 C   0  0  2  0  0  0  0  0  0  0  0  0
   -1.4488   -0.4710   -0.0353 C   0  0  0  0  0  0  0  0  0  0  0  0
    0.8878    1.7505    0.1740 H   0  0  0  0  0  0  0  0  0  0  0  0
    0.4552   -0.3893    0.9506 H   0  0  0  0  0  0  0  0  0  0  0  0
    0.6805    0.2344   -2.0045 H   0  0  0  0  0  0  0  0  0  0  0  0
    1.9236   -0.3839   -0.9321 H   0  0  0  0  0  0  0  0  0  0  0  0
    0.9864   -2.2282   -2.5545 H   0  0  0  0  0  0  0  0  0  0  0  0
   -1.8435   -3.6930   -2.3549 H   0  0  0  0  0  0  0  0  0  0  0  0
   -1.3346   -4.5654   -0.8770 H   0  0  0  0  0  0  0  0  0  0  0  0
   -1.1364   -2.3244    1.0478 H   0  0  0  0  0  0  0  0  0  0  0  0
   -2.0165   -0.0301    0.7889 H   0  0  0  0  0  0  0  0  0  0  0  0
   -1.9087   -0.1622   -0.9797 H   0  0  0  0  0  0  0  0  0  0  0  0
  1 10  1  0  0  0  0
  2  1  1  0  0  0  0
  2 11  1  1  0  0  0
  3 13  1  0  0  0  0
  3  2  1  0  0  0  0
  4  3  1  0  0  0  0
  5  4  1  6  0  0  0
  5  8  1  0  0  0  0
  6  5  1  0  0  0  0
  6 16  1  0  0  0  0
  6  7  1  0  0  0  0
  7  8  1  0  0  0  0
  8 17  1  1  0  0  0
  9  8  1  0  0  0  0
  9  2  1  0  0  0  0
  9 18  1  0  0  0  0
 12  3  1  0  0  0  0
 14  4  1  0  0  0  0
 15  6  1  0  0  0  0
 19  9  1  0  0  0  0
M TOR 0 0 1 2 3
M TOR 1 0 1 2 11
M TOR 2 0 1 2 12
M TOR 3 0 1 8 7
M TOR 4 0 1 8 17
M TOR 5 0 1 8 18
M TOR 6 1 2 3 4
M TOR 7 1 2 3 13
M TOR 8 1 8 7 4
M TOR 9 1 8 7 6
M TOR 10 1 8 7 16
M TOR 11 2 1 0 9
M TOR 12 2 1 8 7
M TOR 13 2 1 8 17
M TOR 14 2 1 8 18
M TOR 15 2 3 4 5
M TOR 16 2 3 4 7
M TOR 17 3 2 1 8
M TOR 18 3 2 1 10
M TOR 19 3 4 5 6
M TOR 20 3 4 5 14
M TOR 21 3 4 5 15
M TOR 22 3 4 7 6
M TOR 23 3 4 7 8
M TOR 24 3 4 7 16
M TOR 25 4 3 2 11
M TOR 26 4 3 2 12
M TOR 27 4 5 6 7
M TOR 28 4 7 8 17
M TOR 29 4 7 8 18
M TOR 30 5 4 3 13
M TOR 31 5 4 7 8
M TOR 32 5 4 7 16
M TOR 33 5 6 7 8
M TOR 34 5 6 7 16
M TOR 35 6 7 8 17
M TOR 36 6 7 8 18
M TOR 37 7 4 3 13
M TOR 38 7 4 5 14
M TOR 39 7 4 5 15
M TOR 40 7 6 5 14
M TOR 41 7 6 5 15
M TOR 42 7 8 1 10
M TOR 43 8 1 0 9
M TOR 44 8 1 2 11
M TOR 45 8 1 2 12
M  END
$$$$
