gdb 5988	5.1385898	0.7431981	0.6870018	5.556	80.13	-0.26279	-0.03679	0.22600000000000003	1654.761	0.157015	-422.61085	-422.6018	-422.600856	-422.645684	32.327
 OpenBabel02181911423D

 19 19  0  0  0  0  0  0  0  0999 V2000
    2.2434   -1.0326   -1.0966 C   0  0  0  0  0  0  0  0  0  0  0  0
    1.7219   -0.2987    0.1406 C   0  0  0  0  0  0  0  0  0  0  0  0
    2.0789    1.2030    0.1254 C   0  0  0  0  0  0  0  0  0  0  0  0
    1.6006    1.9432    1.3331 C   0  0  0  0  0  0  0  0  0  0  0  0
    2.3037    2.5182    2.3131 C   0  0  0  0  0  0  0  0  0  0  0  0
    1.3828    3.1300    3.2942 C   0  0  0  0  0  0  0  0  0  0  0  0
    1.6109    3.7331    4.3038 O   0  0  0  0  0  0  0  0  0  0  0  0
    0.0969    2.8946    2.8524 O   0  0  0  0  0  0  0  0  0  0  0  0
    0.1381    2.1593    1.6364 C   0  0  0  0  0  0  0  0  0  0  0  0
    1.9835   -2.0946   -1.0632 H   0  0  0  0  0  0  0  0  0  0  0  0
    1.8188   -0.6132   -2.0153 H   0  0  0  0  0  0  0  0  0  0  0  0
    3.3337   -0.9578   -1.1711 H   0  0  0  0  0  0  0  0  0  0  0  0
    0.6338   -0.4174    0.2062 H   0  0  0  0  0  0  0  0  0  0  0  0
    2.1367   -0.7529    1.0482 H   0  0  0  0  0  0  0  0  0  0  0  0
    3.1649    1.3170    0.0388 H   0  0  0  0  0  0  0  0  0  0  0  0
    1.6423    1.6584   -0.7748 H   0  0  0  0  0  0  0  0  0  0  0  0
    3.3769    2.5705    2.4261 H   0  0  0  0  0  0  0  0  0  0  0  0
   -0.4107    1.2181    1.7673 H   0  0  0  0  0  0  0  0  0  0  0  0
   -0.3652    2.7329    0.8466 H   0  0  0  0  0  0  0  0  0  0  0  0
  1 10  1  0  0  0  0
  1  2  1  0  0  0  0
  2 13  1  0  0  0  0
  2 14  1  0  0  0  0
  3  2  1  0  0  0  0
  3  4  1  0  0  0  0
  4  9  1  0  0  0  0
  4  5  2  0  0  0  0
  5 17  1  0  0  0  0
  5  6  1  0  0  0  0
  6  7  2  0  0  0  0
  8  6  1  0  0  0  0
  9 18  1  0  0  0  0
  9  8  1  0  0  0  0
 11  1  1  0  0  0  0
 12  1  1  0  0  0  0
 15  3  1  0  0  0  0
 16  3  1  0  0  0  0
 19  9  1  0  0  0  0
M TOR 0 0 1 2 3
M TOR 1 0 1 2 14
M TOR 2 0 1 2 15
M TOR 3 1 2 3 4
M TOR 4 1 2 3 8
M TOR 5 2 1 0 9
M TOR 6 2 1 0 10
M TOR 7 2 1 0 11
M TOR 8 2 3 4 5
M TOR 9 2 3 4 16
M TOR 10 2 3 8 7
M TOR 11 2 3 8 17
M TOR 12 2 3 8 18
M TOR 13 3 2 1 12
M TOR 14 3 2 1 13
M TOR 15 3 4 5 6
M TOR 16 3 4 5 7
M TOR 17 3 8 7 5
M TOR 18 4 3 2 14
M TOR 19 4 3 2 15
M TOR 20 4 3 8 7
M TOR 21 4 3 8 17
M TOR 22 4 3 8 18
M TOR 23 4 5 7 8
M TOR 24 5 4 3 8
M TOR 25 5 7 8 17
M TOR 26 5 7 8 18
M TOR 27 6 5 4 16
M TOR 28 6 5 7 8
M TOR 29 7 5 4 16
M TOR 30 8 3 2 14
M TOR 31 8 3 2 15
M TOR 32 8 3 4 16
M  END
$$$$
