
     RDKit          3D

 19 20  0  0  0  0  0  0  0  0999 V2000
    1.0299   -0.6529   -0.0244 O   0  0  0  0  0  0  0  0  0  0  0  0
    0.0774    0.0718    0.1158 C   0  0  0  0  0  0  0  0  0  0  0  0
    0.0789    1.5353   -0.2696 C   0  0  0  0  0  0  0  0  0  0  0  0
   -1.2034    2.1527   -0.0737 O   0  0  0  0  0  0  0  0  0  0  0  0
   -1.3147    2.4792   -1.4767 C   0  0  0  0  0  0  0  0  0  0  0  0
    0.0596    1.8474   -1.7911 C   0  0  0  0  0  0  0  0  0  0  0  0
    0.1981    0.7927   -2.9163 C   0  0  0  0  0  0  0  0  0  0  0  0
    0.9103    1.8648   -3.7854 C   0  0  0  0  0  0  0  0  0  0  0  0
    1.1505    2.6910   -2.4922 C   0  0  0  0  0  0  0  0  0  0  0  0
   -0.8957   -0.2860    0.5222 H   0  0  0  0  0  0  0  0  0  0  0  0
    0.8829    2.0478    0.2781 H   0  0  0  0  0  0  0  0  0  0  0  0
   -2.1808    1.9884   -1.9393 H   0  0  0  0  0  0  0  0  0  0  0  0
   -1.3853    3.5623   -1.6375 H   0  0  0  0  0  0  0  0  0  0  0  0
    0.8757   -0.0128   -2.6213 H   0  0  0  0  0  0  0  0  0  0  0  0
   -0.7266    0.3505   -3.2980 H   0  0  0  0  0  0  0  0  0  0  0  0
    1.7898    1.5495   -4.3497 H   0  0  0  0  0  0  0  0  0  0  0  0
    0.2199    2.3660   -4.4692 H   0  0  0  0  0  0  0  0  0  0  0  0
    2.1379    2.4964   -2.0628 H   0  0  0  0  0  0  0  0  0  0  0  0
    0.9929    3.7726   -2.5313 H   0  0  0  0  0  0  0  0  0  0  0  0
  1  2  2  0
  2  3  1  0
  3  4  1  0
  4  5  1  0
  5  6  1  0
  6  7  1  0
  7  8  1  0
  8  9  1  0
  6  3  1  0
  9  6  1  0
  2 10  1  0
  3 11  1  0
  5 12  1  0
  5 13  1  0
  7 14  1  0
  7 15  1  0
  8 16  1  0
  8 17  1  0
  9 18  1  0
  9 19  1  0
M  END
$$$$
