
     RDKit          3D

 19 20  0  0  0  0  0  0  0  0999 V2000
    1.3829    0.9549    0.2665 C   0  0  0  0  0  0  0  0  0  0  0  0
    1.0990   -0.5022   -0.1171 C   0  0  0  0  0  0  0  0  0  0  0  0
    1.8192   -0.9480   -1.3688 C   0  0  0  0  0  0  0  0  0  0  0  0
    1.2513   -2.0179   -2.2888 C   0  0  0  0  0  0  0  0  0  0  0  0
    1.4454   -0.6224   -2.7987 C   0  0  0  0  0  0  0  0  0  0  0  0
    2.7546   -0.3710   -3.5242 C   0  0  0  0  0  0  0  0  0  0  0  0
    3.8004   -0.7702   -2.6213 O   0  0  0  0  0  0  0  0  0  0  0  0
    3.3214   -0.9561   -1.3538 C   0  0  0  0  0  0  0  0  0  0  0  0
    4.0485   -1.0964   -0.4119 O   0  0  0  0  0  0  0  0  0  0  0  0
    0.8408    1.2290    1.1763 H   0  0  0  0  0  0  0  0  0  0  0  0
    2.4498    1.1054    0.4538 H   0  0  0  0  0  0  0  0  0  0  0  0
    1.0746    1.6432   -0.5280 H   0  0  0  0  0  0  0  0  0  0  0  0
    1.4045   -1.1625    0.7027 H   0  0  0  0  0  0  0  0  0  0  0  0
    0.0221   -0.6512   -0.2575 H   0  0  0  0  0  0  0  0  0  0  0  0
    1.9033   -2.8079   -2.6491 H   0  0  0  0  0  0  0  0  0  0  0  0
    0.2371   -2.3329   -2.0687 H   0  0  0  0  0  0  0  0  0  0  0  0
    0.5882   -0.0050   -3.0383 H   0  0  0  0  0  0  0  0  0  0  0  0
    2.8657   -0.9552   -4.4430 H   0  0  0  0  0  0  0  0  0  0  0  0
    2.8891    0.6901   -3.7634 H   0  0  0  0  0  0  0  0  0  0  0  0
  1  2  1  0
  2  3  1  0
  3  4  1  0
  4  5  1  0
  5  6  1  0
  6  7  1  0
  7  8  1  0
  8  9  2  0
  5  3  1  0
  8  3  1  0
  1 10  1  0
  1 11  1  0
  1 12  1  0
  2 13  1  0
  2 14  1  0
  4 15  1  0
  4 16  1  0
  5 17  1  0
  6 18  1  0
  6 19  1  0
M  END
$$$$
