gdb 613	2.1988072	2.0962772	1.8066399	0.7305	74.21	-0.24008	0.00106	0.24114	903.0021	0.16052	-422.552472	-422.545503	-422.544558	-422.583316	28.607
 OpenBabel02181911403D

 19 20  0  0  1  0  0  0  0  0999 V2000
   -2.0499    0.5437    0.8052 C   0  0  0  0  0  0  0  0  0  0  0  0
   -2.9114   -0.0082   -0.1873 O   0  0  0  0  0  0  0  0  0  0  0  0
   -2.2775   -0.3902   -1.4177 C   0  0  1  0  0  0  0  0  0  0  0  0
   -2.0393    0.8564   -2.3050 C   0  0  0  0  0  0  0  0  0  0  0  0
   -1.5786    2.0691   -1.4833 C   0  0  0  0  0  0  0  0  0  0  0  0
   -0.4801    1.8460   -0.6073 O   0  0  0  0  0  0  0  0  0  0  0  0
   -0.6105    0.7582    0.3156 C   0  0  2  0  0  0  0  0  0  0  0  0
   -0.1391   -0.5476   -0.2930 C   0  0  0  0  0  0  0  0  0  0  0  0
   -0.9760   -1.1184   -1.1523 C   0  0  0  0  0  0  0  0  0  0  0  0
   -2.4821    1.4949    1.1415 H   0  0  0  0  0  0  0  0  0  0  0  0
   -2.0148   -0.1351    1.6682 H   0  0  0  0  0  0  0  0  0  0  0  0
   -2.9963   -1.0555   -1.9035 H   0  0  0  0  0  0  0  0  0  0  0  0
   -1.3112    0.6104   -3.0853 H   0  0  0  0  0  0  0  0  0  0  0  0
   -2.9736    1.1415   -2.8027 H   0  0  0  0  0  0  0  0  0  0  0  0
   -1.2510    2.8711   -2.1517 H   0  0  0  0  0  0  0  0  0  0  0  0
   -2.4410    2.4498   -0.9184 H   0  0  0  0  0  0  0  0  0  0  0  0
    0.0067    1.0405    1.1740 H   0  0  0  0  0  0  0  0  0  0  0  0
    0.8202   -0.9692   -0.0136 H   0  0  0  0  0  0  0  0  0  0  0  0
   -0.7671   -2.0496   -1.6693 H   0  0  0  0  0  0  0  0  0  0  0  0
  1 10  1  0  0  0  0
  1 11  1  0  0  0  0
  2  1  1  0  0  0  0
  3 12  1  6  0  0  0
  3  9  1  0  0  0  0
  3  2  1  0  0  0  0
  4  5  1  0  0  0  0
  4  3  1  0  0  0  0
  5 16  1  0  0  0  0
  5  6  1  0  0  0  0
  6  7  1  0  0  0  0
  7  1  1  0  0  0  0
  7 17  1  1  0  0  0
  8 18  1  0  0  0  0
  8  7  1  0  0  0  0
  9  8  2  0  0  0  0
 13  4  1  0  0  0  0
 14  4  1  0  0  0  0
 15  5  1  0  0  0  0
 19  9  1  0  0  0  0
M TOR 0 0 1 2 3
M TOR 1 0 1 2 8
M TOR 2 0 1 2 11
M TOR 3 0 6 5 4
M TOR 4 0 6 7 8
M TOR 5 0 6 7 17
M TOR 6 1 0 6 5
M TOR 7 1 0 6 7
M TOR 8 1 0 6 16
M TOR 9 1 2 3 4
M TOR 10 1 2 3 12
M TOR 11 1 2 3 13
M TOR 12 1 2 8 7
M TOR 13 1 2 8 18
M TOR 14 2 1 0 6
M TOR 15 2 1 0 9
M TOR 16 2 1 0 10
M TOR 17 2 3 4 5
M TOR 18 2 3 4 14
M TOR 19 2 3 4 15
M TOR 20 2 8 7 6
M TOR 21 2 8 7 17
M TOR 22 3 2 8 7
M TOR 23 3 2 8 18
M TOR 24 3 4 5 6
M TOR 25 4 3 2 8
M TOR 26 4 3 2 11
M TOR 27 4 5 6 7
M TOR 28 4 5 6 16
M TOR 29 5 4 3 12
M TOR 30 5 4 3 13
M TOR 31 5 6 0 9
M TOR 32 5 6 0 10
M TOR 33 5 6 7 8
M TOR 34 5 6 7 17
M TOR 35 6 5 4 14
M TOR 36 6 5 4 15
M TOR 37 6 7 8 18
M TOR 38 7 6 0 9
M TOR 39 7 6 0 10
M TOR 40 7 8 2 11
M TOR 41 8 2 3 12
M TOR 42 8 2 3 13
M TOR 43 8 7 6 16
M  END
$$$$
