
     RDKit          3D

 19 21  0  0  0  0  0  0  0  0999 V2000
    0.1845    0.8645   -1.1814 C   0  0  0  0  0  0  0  0  0  0  0  0
    0.4479   -0.4421   -0.5844 O   0  0  0  0  0  0  0  0  0  0  0  0
    1.0655    0.1854    0.5698 C   0  0  0  0  0  0  0  0  0  0  0  0
    2.5890    0.2300    0.7544 C   0  0  0  0  0  0  0  0  0  0  0  0
    2.6808    1.0157   -0.5755 C   0  0  0  0  0  0  0  0  0  0  0  0
    1.2161    1.4883   -0.2485 C   0  0  0  0  0  0  0  0  0  0  0  0
    1.2493    2.7345    0.5956 C   0  0  0  0  0  0  0  0  0  0  0  0
    2.3659    2.6082    1.4875 O   0  0  0  0  0  0  0  0  0  0  0  0
    2.7526    1.2875    1.8824 C   0  0  0  0  0  0  0  0  0  0  0  0
    0.3930    0.8783   -2.2566 H   0  0  0  0  0  0  0  0  0  0  0  0
   -0.8540    1.1759   -1.0005 H   0  0  0  0  0  0  0  0  0  0  0  0
    0.4349    0.0849    1.4611 H   0  0  0  0  0  0  0  0  0  0  0  0
    3.1916   -0.6635    0.9420 H   0  0  0  0  0  0  0  0  0  0  0  0
    3.4460    1.7902   -0.6445 H   0  0  0  0  0  0  0  0  0  0  0  0
    2.7107    0.3662   -1.4498 H   0  0  0  0  0  0  0  0  0  0  0  0
    1.4298    3.6538    0.0263 H   0  0  0  0  0  0  0  0  0  0  0  0
    0.3093    2.8556    1.1568 H   0  0  0  0  0  0  0  0  0  0  0  0
    3.8068    1.3758    2.1629 H   0  0  0  0  0  0  0  0  0  0  0  0
    2.1913    0.9722    2.7769 H   0  0  0  0  0  0  0  0  0  0  0  0
  1  2  1  0
  2  3  1  0
  3  4  1  0
  4  5  1  0
  5  6  1  0
  6  7  1  0
  7  8  1  0
  8  9  1  0
  6  1  1  0
  6  3  1  0
  9  4  1  0
  1 10  1  0
  1 11  1  0
  3 12  1  0
  4 13  1  0
  5 14  1  0
  5 15  1  0
  7 16  1  0
  7 17  1  0
  9 18  1  0
  9 19  1  0
M  END
$$$$
