gdb 4483	2.8056446	1.7403513	1.3395241	2.0711	73.15	-0.23211	0.07084	0.30295	990.4951	0.159365	-422.531503	-422.524208	-422.523264	-422.5629	29.605
 OpenBabel02181911413D

 19 21  0  0  1  0  0  0  0  0999 V2000
    2.0467   -1.6996   -3.0358 O   0  0  0  0  0  0  0  0  0  0  0  0
    1.2684   -1.3797   -1.8899 C   0  0  2  0  0  0  0  0  0  0  0  0
   -0.2291   -1.3329   -2.2309 C   0  0  0  0  0  0  0  0  0  0  0  0
   -1.1139   -0.8068   -1.0829 C   0  0  0  0  0  0  0  0  0  0  0  0
   -0.5013    0.3444   -0.3021 C   0  0  2  0  0  0  0  0  0  0  0  0
    0.3749    1.4475   -0.8456 C   0  0  2  0  0  0  0  0  0  0  0  0
    1.1127    1.0734   -2.0104 O   0  0  0  0  0  0  0  0  0  0  0  0
    1.6992   -0.0521   -1.2731 C   0  0  1  0  0  0  0  0  0  0  0  0
    0.9774    0.3650    0.0153 C   0  0  2  0  0  0  0  0  0  0  0  0
    1.8841   -1.0079   -3.6878 H   0  0  0  0  0  0  0  0  0  0  0  0
    1.4805   -2.1767   -1.1657 H   0  0  0  0  0  0  0  0  0  0  0  0
   -0.3382   -0.6716   -3.0963 H   0  0  0  0  0  0  0  0  0  0  0  0
   -0.5609   -2.3285   -2.5400 H   0  0  0  0  0  0  0  0  0  0  0  0
   -2.0926   -0.5179   -1.4842 H   0  0  0  0  0  0  0  0  0  0  0  0
   -1.3056   -1.6184   -0.3680 H   0  0  0  0  0  0  0  0  0  0  0  0
   -1.1093    0.6969    0.5294 H   0  0  0  0  0  0  0  0  0  0  0  0
    0.2085    2.5061   -0.6811 H   0  0  0  0  0  0  0  0  0  0  0  0
    2.7884    0.0423   -1.2493 H   0  0  0  0  0  0  0  0  0  0  0  0
    1.4067    0.3867    1.0078 H   0  0  0  0  0  0  0  0  0  0  0  0
  1  2  1  0  0  0  0
  2  8  1  0  0  0  0
  2 11  1  1  0  0  0
  3  2  1  0  0  0  0
  3  4  1  0  0  0  0
  4 15  1  0  0  0  0
  4  5  1  0  0  0  0
  5  9  1  0  0  0  0
  5 16  1  1  0  0  0
  6 17  1  1  0  0  0
  6  5  1  0  0  0  0
  6  9  1  0  0  0  0
  7  8  1  0  0  0  0
  7  6  1  0  0  0  0
  8 18  1  1  0  0  0
  8  9  1  0  0  0  0
  9 19  1  1  0  0  0
 10  1  1  0  0  0  0
 12  3  1  0  0  0  0
 13  3  1  0  0  0  0
 14  4  1  0  0  0  0
M TOR 0 0 1 2 3
M TOR 1 0 1 2 11
M TOR 2 0 1 2 12
M TOR 3 0 1 7 6
M TOR 4 0 1 7 8
M TOR 5 0 1 7 17
M TOR 6 1 2 3 4
M TOR 7 1 2 3 13
M TOR 8 1 2 3 14
M TOR 9 1 7 6 5
M TOR 10 1 7 8 4
M TOR 11 1 7 8 5
M TOR 12 1 7 8 18
M TOR 13 2 1 0 9
M TOR 14 2 1 7 6
M TOR 15 2 1 7 8
M TOR 16 2 1 7 17
M TOR 17 2 3 4 5
M TOR 18 2 3 4 8
M TOR 19 2 3 4 15
M TOR 20 3 2 1 7
M TOR 21 3 2 1 10
M TOR 22 3 4 5 6
M TOR 23 3 4 5 8
M TOR 24 3 4 5 16
M TOR 25 3 4 8 7
M TOR 26 3 4 8 18
M TOR 27 4 3 2 11
M TOR 28 4 3 2 12
M TOR 29 4 5 6 7
M TOR 30 4 5 8 7
M TOR 31 4 5 8 18
M TOR 32 4 8 5 6
M TOR 33 4 8 5 16
M TOR 34 4 8 7 6
M TOR 35 4 8 7 17
M TOR 36 5 4 3 13
M TOR 37 5 4 3 14
M TOR 38 5 6 7 8
M TOR 39 5 6 7 17
M TOR 40 5 8 4 15
M TOR 41 5 8 7 17
M TOR 42 6 5 4 15
M TOR 43 6 5 8 18
M TOR 44 6 7 1 10
M TOR 45 6 7 8 18
M TOR 46 7 1 0 9
M TOR 47 7 1 2 11
M TOR 48 7 1 2 12
M TOR 49 7 6 5 16
M TOR 50 7 8 4 15
M TOR 51 7 8 5 16
M TOR 52 8 4 3 13
M TOR 53 8 4 3 14
M TOR 54 8 7 1 10
M  END
$$$$
