
     RDKit          3D

 19 19  0  0  0  0  0  0  0  0999 V2000
    0.1928   -0.4083   -0.6112 C   0  0  0  0  0  0  0  0  0  0  0  0
    1.1563    0.1856    0.4024 C   0  0  0  0  0  0  0  0  0  0  0  0
    2.4896   -0.5684    0.4911 C   0  0  0  0  0  0  0  0  0  0  0  0
    3.4624    0.2185    1.3916 C   0  0  0  0  0  0  0  0  0  0  0  0
    3.5560    1.5675    0.9310 O   0  0  0  0  0  0  0  0  0  0  0  0
    2.2883    2.1736    0.8985 C   0  0  0  0  0  0  0  0  0  0  0  0
    1.4003    1.5406    0.0215 O   0  0  0  0  0  0  0  0  0  0  0  0
    4.7968   -0.3674    1.4195 C   0  0  0  0  0  0  0  0  0  0  0  0
    5.8773   -0.8910    1.4413 C   0  0  0  0  0  0  0  0  0  0  0  0
   -0.0555   -1.4401   -0.3452 H   0  0  0  0  0  0  0  0  0  0  0  0
   -0.7304    0.1762   -0.6450 H   0  0  0  0  0  0  0  0  0  0  0  0
    0.6400   -0.4030   -1.6097 H   0  0  0  0  0  0  0  0  0  0  0  0
    0.6856    0.1848    1.4026 H   0  0  0  0  0  0  0  0  0  0  0  0
    2.3399   -1.5755    0.8931 H   0  0  0  0  0  0  0  0  0  0  0  0
    2.9296   -0.6565   -0.5071 H   0  0  0  0  0  0  0  0  0  0  0  0
    3.0575    0.2260    2.4202 H   0  0  0  0  0  0  0  0  0  0  0  0
    1.8596    2.1915    1.9201 H   0  0  0  0  0  0  0  0  0  0  0  0
    2.4362    3.1913    0.5329 H   0  0  0  0  0  0  0  0  0  0  0  0
    6.8386   -1.3418    1.4629 H   0  0  0  0  0  0  0  0  0  0  0  0
  1  2  1  0
  2  3  1  0
  3  4  1  0
  4  5  1  0
  5  6  1  0
  6  7  1  0
  4  8  1  0
  8  9  3  0
  7  2  1  0
  1 10  1  0
  1 11  1  0
  1 12  1  0
  2 13  1  0
  3 14  1  0
  3 15  1  0
  4 16  1  0
  6 17  1  0
  6 18  1  0
  9 19  1  0
M  END
$$$$
