gdb 253	2.8574178	1.7439512	1.2885777	1.1161	74.04	-0.2439	0.07881	0.32271	1005.6284	0.158864	-422.5188	-422.511395	-422.510451	-422.550919	29.052
 OpenBabel02181911403D

 19 21  0  0  1  0  0  0  0  0999 V2000
    0.8361    4.0206   -0.4979 C   0  0  0  0  0  0  0  0  0  0  0  0
    1.1249    3.4914    0.9116 C   0  0  1  0  0  0  0  0  0  0  0  0
   -0.1219    3.1114    1.5287 O   0  0  0  0  0  0  0  0  0  0  0  0
    0.4858    2.2008    0.6186 C   0  0  2  0  0  0  0  0  0  0  0  0
    0.8434    0.7971    0.9875 C   0  0  0  0  0  0  0  0  0  0  0  0
    1.5014    0.1212   -0.2533 C   0  0  0  0  0  0  0  0  0  0  0  0
    1.9410    1.0534   -1.2285 O   0  0  0  0  0  0  0  0  0  0  0  0
    0.8514    1.7421   -1.8293 C   0  0  0  0  0  0  0  0  0  0  0  0
    0.1387    2.6533   -0.8199 C   0  0  2  0  0  0  0  0  0  0  0  0
    0.2201    4.9213   -0.5576 H   0  0  0  0  0  0  0  0  0  0  0  0
    1.7515    4.1602   -1.0802 H   0  0  0  0  0  0  0  0  0  0  0  0
    1.9419    3.7355    1.5814 H   0  0  0  0  0  0  0  0  0  0  0  0
    1.5207    0.8030    1.8470 H   0  0  0  0  0  0  0  0  0  0  0  0
   -0.0501    0.2367    1.2873 H   0  0  0  0  0  0  0  0  0  0  0  0
    2.3859   -0.4494    0.0389 H   0  0  0  0  0  0  0  0  0  0  0  0
    0.7880   -0.5789   -0.7165 H   0  0  0  0  0  0  0  0  0  0  0  0
    1.2694    2.3086   -2.6672 H   0  0  0  0  0  0  0  0  0  0  0  0
    0.1380    1.0080   -2.2395 H   0  0  0  0  0  0  0  0  0  0  0  0
   -0.9323    2.7189   -1.0294 H   0  0  0  0  0  0  0  0  0  0  0  0
  1  2  1  0  0  0  0
  2  3  1  0  0  0  0
  2 12  1  1  0  0  0
  4  2  1  0  0  0  0
  4  5  1  0  0  0  0
  4  3  1  1  0  0  0
  5 14  1  0  0  0  0
  5 13  1  0  0  0  0
  6 15  1  0  0  0  0
  6  5  1  0  0  0  0
  7  6  1  0  0  0  0
  8  7  1  0  0  0  0
  8  9  1  0  0  0  0
  9 19  1  6  0  0  0
  9  1  1  0  0  0  0
  9  4  1  0  0  0  0
 10  1  1  0  0  0  0
 11  1  1  0  0  0  0
 16  6  1  0  0  0  0
 17  8  1  0  0  0  0
 18  8  1  0  0  0  0
M TOR 0 0 1 2 3
M TOR 1 0 1 3 4
M TOR 2 0 1 3 8
M TOR 3 0 8 3 2
M TOR 4 0 8 3 4
M TOR 5 0 8 7 6
M TOR 6 0 8 7 16
M TOR 7 0 8 7 17
M TOR 8 1 0 8 7
M TOR 9 1 0 8 18
M TOR 10 1 2 3 4
M TOR 11 1 2 3 8
M TOR 12 1 3 4 5
M TOR 13 1 3 4 12
M TOR 14 1 3 4 13
M TOR 15 1 3 8 7
M TOR 16 1 3 8 18
M TOR 17 2 1 0 8
M TOR 18 2 1 0 9
M TOR 19 2 1 0 10
M TOR 20 2 3 1 11
M TOR 21 2 3 4 5
M TOR 22 2 3 4 12
M TOR 23 2 3 4 13
M TOR 24 2 3 8 7
M TOR 25 2 3 8 18
M TOR 26 3 1 0 9
M TOR 27 3 1 0 10
M TOR 28 3 4 5 6
M TOR 29 3 4 5 14
M TOR 30 3 4 5 15
M TOR 31 3 8 0 9
M TOR 32 3 8 0 10
M TOR 33 3 8 7 6
M TOR 34 3 8 7 16
M TOR 35 3 8 7 17
M TOR 36 4 3 1 11
M TOR 37 4 3 8 7
M TOR 38 4 3 8 18
M TOR 39 4 5 6 7
M TOR 40 5 4 3 8
M TOR 41 5 6 7 8
M TOR 42 5 6 7 16
M TOR 43 5 6 7 17
M TOR 44 6 5 4 12
M TOR 45 6 5 4 13
M TOR 46 6 7 8 18
M TOR 47 7 6 5 14
M TOR 48 7 6 5 15
M TOR 49 7 8 0 9
M TOR 50 7 8 0 10
M TOR 51 8 0 1 11
M TOR 52 8 3 1 11
M TOR 53 8 3 4 12
M TOR 54 8 3 4 13
M  END
$$$$
