gdb 5395	3.3229343	1.0960904	0.8786354	1.5667	82.03	-0.22207	-0.02931	0.19276	1323.2986	0.157774	-422.548785	-422.540106	-422.539162	-422.582473	32.278
 OpenBabel02181911423D

 19 19  0  0  0  0  0  0  0  0999 V2000
    0.9741    0.3811   -0.2918 O   0  0  0  0  0  0  0  0  0  0  0  0
    0.6305    0.0309    1.0452 C   0  0  0  0  0  0  0  0  0  0  0  0
   -0.8638   -0.1258    1.2412 C   0  0  0  0  0  0  0  0  0  0  0  0
   -1.4978    0.6111    2.1661 C   0  0  0  0  0  0  0  0  0  0  0  0
   -2.9696    0.5211    2.4640 C   0  0  0  0  0  0  0  0  0  0  0  0
   -3.4278   -0.8148    2.6340 O   0  0  0  0  0  0  0  0  0  0  0  0
   -3.7942   -1.4741    1.4478 C   0  0  0  0  0  0  0  0  0  0  0  0
   -2.7408   -1.6058    0.3861 C   0  0  0  0  0  0  0  0  0  0  0  0
   -1.5142   -1.0699    0.3258 C   0  0  0  0  0  0  0  0  0  0  0  0
    0.5123    1.2006   -0.4995 H   0  0  0  0  0  0  0  0  0  0  0  0
    1.1414   -0.9220    1.2266 H   0  0  0  0  0  0  0  0  0  0  0  0
    1.0265    0.7597    1.7674 H   0  0  0  0  0  0  0  0  0  0  0  0
   -0.9188    1.3065    2.7702 H   0  0  0  0  0  0  0  0  0  0  0  0
   -3.1904    1.0366    3.4040 H   0  0  0  0  0  0  0  0  0  0  0  0
   -3.5528    1.0225    1.6734 H   0  0  0  0  0  0  0  0  0  0  0  0
   -4.0992   -2.4805    1.7654 H   0  0  0  0  0  0  0  0  0  0  0  0
   -4.6951   -1.0137    0.9987 H   0  0  0  0  0  0  0  0  0  0  0  0
   -3.0442   -2.2612   -0.4299 H   0  0  0  0  0  0  0  0  0  0  0  0
   -0.8990   -1.3361   -0.5304 H   0  0  0  0  0  0  0  0  0  0  0  0
  1  2  1  0  0  0  0
  2 11  1  0  0  0  0
  2  3  1  0  0  0  0
  2 12  1  0  0  0  0
  3  4  2  0  0  0  0
  4  5  1  0  0  0  0
  4 13  1  0  0  0  0
  5  6  1  0  0  0  0
  5 14  1  0  0  0  0
  7 16  1  0  0  0  0
  7  6  1  0  0  0  0
  8  7  1  0  0  0  0
  9  8  2  0  0  0  0
  9  3  1  0  0  0  0
 10  1  1  0  0  0  0
 15  5  1  0  0  0  0
 17  7  1  0  0  0  0
 18  8  1  0  0  0  0
 19  9  1  0  0  0  0
M TOR 0 0 1 2 3
M TOR 1 0 1 2 8
M TOR 2 1 2 3 4
M TOR 3 1 2 3 12
M TOR 4 1 2 8 7
M TOR 5 1 2 8 18
M TOR 6 2 1 0 9
M TOR 7 2 3 4 5
M TOR 8 2 3 4 13
M TOR 9 2 3 4 14
M TOR 10 2 8 7 6
M TOR 11 2 8 7 17
M TOR 12 3 2 1 10
M TOR 13 3 2 1 11
M TOR 14 3 2 8 7
M TOR 15 3 2 8 18
M TOR 16 3 4 5 6
M TOR 17 4 3 2 8
M TOR 18 4 5 6 7
M TOR 19 4 5 6 15
M TOR 20 4 5 6 16
M TOR 21 5 4 3 12
M TOR 22 5 6 7 8
M TOR 23 5 6 7 17
M TOR 24 6 5 4 13
M TOR 25 6 5 4 14
M TOR 26 6 7 8 18
M TOR 27 8 2 1 10
M TOR 28 8 2 1 11
M TOR 29 8 2 3 12
M TOR 30 8 7 6 15
M TOR 31 8 7 6 16
M  END
$$$$
