
     RDKit          3D

 19 20  0  0  0  0  0  0  0  0999 V2000
    0.9647   -0.8887    0.5145 O   0  0  0  0  0  0  0  0  0  0  0  0
    0.7080    0.5109    0.6114 C   0  0  0  0  0  0  0  0  0  0  0  0
   -0.7494    0.8041    0.8125 C   0  0  0  0  0  0  0  0  0  0  0  0
   -1.2921    1.4687    1.8380 C   0  0  0  0  0  0  0  0  0  0  0  0
   -2.7901    1.5357    1.7444 C   0  0  0  0  0  0  0  0  0  0  0  0
   -3.4737    0.5943    2.6187 O   0  0  0  0  0  0  0  0  0  0  0  0
   -3.7204   -0.3015    1.5131 C   0  0  0  0  0  0  0  0  0  0  0  0
   -3.1273    0.6906    0.4873 C   0  0  0  0  0  0  0  0  0  0  0  0
   -1.7920    0.3204   -0.1802 C   0  0  0  0  0  0  0  0  0  0  0  0
    0.6810   -1.2872    1.3442 H   0  0  0  0  0  0  0  0  0  0  0  0
    1.3035    0.9765    1.4104 H   0  0  0  0  0  0  0  0  0  0  0  0
    1.0540    0.9290   -0.3419 H   0  0  0  0  0  0  0  0  0  0  0  0
   -0.7356    1.8988    2.6642 H   0  0  0  0  0  0  0  0  0  0  0  0
   -3.2089    2.5417    1.8605 H   0  0  0  0  0  0  0  0  0  0  0  0
   -3.1685   -1.2464    1.6127 H   0  0  0  0  0  0  0  0  0  0  0  0
   -4.7885   -0.5248    1.4077 H   0  0  0  0  0  0  0  0  0  0  0  0
   -3.8609    1.1097   -0.2012 H   0  0  0  0  0  0  0  0  0  0  0  0
   -1.6923   -0.7541   -0.3728 H   0  0  0  0  0  0  0  0  0  0  0  0
   -1.6644    0.8163   -1.1519 H   0  0  0  0  0  0  0  0  0  0  0  0
  1  2  1  0
  2  3  1  0
  3  4  2  0
  4  5  1  0
  5  6  1  0
  6  7  1  0
  7  8  1  0
  8  9  1  0
  9  3  1  0
  8  5  1  0
  1 10  1  0
  2 11  1  0
  2 12  1  0
  4 13  1  0
  5 14  1  0
  7 15  1  0
  7 16  1  0
  8 17  1  0
  9 18  1  0
  9 19  1  0
M  END
$$$$
