
     RDKit          3D

 19 19  0  0  0  0  0  0  0  0999 V2000
   -1.4460   -2.0974   -4.6502 O   0  0  0  0  0  0  0  0  0  0  0  0
   -0.8985   -1.5399   -3.7368 C   0  0  0  0  0  0  0  0  0  0  0  0
   -0.3253   -0.1355   -3.8285 C   0  0  0  0  0  0  0  0  0  0  0  0
    0.1709    0.2145   -2.5645 O   0  0  0  0  0  0  0  0  0  0  0  0
    0.8423    1.4700   -2.5096 C   0  0  0  0  0  0  0  0  0  0  0  0
    1.6025    1.5194   -1.1631 C   0  0  0  0  0  0  0  0  0  0  0  0
    0.7664    2.4356   -0.3057 C   0  0  0  0  0  0  0  0  0  0  0  0
   -0.1829    3.0508   -1.0068 C   0  0  0  0  0  0  0  0  0  0  0  0
   -0.1556    2.6628   -2.4647 C   0  0  0  0  0  0  0  0  0  0  0  0
   -0.7598   -2.0119   -2.7393 H   0  0  0  0  0  0  0  0  0  0  0  0
    0.4682   -0.1317   -4.5967 H   0  0  0  0  0  0  0  0  0  0  0  0
   -1.1176    0.5411   -4.1871 H   0  0  0  0  0  0  0  0  0  0  0  0
    1.5223    1.5414   -3.3700 H   0  0  0  0  0  0  0  0  0  0  0  0
    1.6981    0.5063   -0.7587 H   0  0  0  0  0  0  0  0  0  0  0  0
    2.6209    1.9085   -1.2918 H   0  0  0  0  0  0  0  0  0  0  0  0
    0.9532    2.5720    0.7534 H   0  0  0  0  0  0  0  0  0  0  0  0
   -0.8948    3.7652   -0.6090 H   0  0  0  0  0  0  0  0  0  0  0  0
   -1.1402    2.3702   -2.8472 H   0  0  0  0  0  0  0  0  0  0  0  0
    0.1855    3.4957   -3.0942 H   0  0  0  0  0  0  0  0  0  0  0  0
  1  2  2  0
  2  3  1  0
  3  4  1  0
  4  5  1  0
  5  6  1  0
  6  7  1  0
  7  8  2  0
  8  9  1  0
  9  5  1  0
  2 10  1  0
  3 11  1  0
  3 12  1  0
  5 13  1  0
  6 14  1  0
  6 15  1  0
  7 16  1  0
  8 17  1  0
  9 18  1  0
  9 19  1  0
M  END
$$$$
