
     RDKit          3D

 19 21  0  0  0  0  0  0  0  0999 V2000
   -1.7168   -0.7572   -0.0490 O   0  0  0  0  0  0  0  0  0  0  0  0
   -0.8905   -0.5593    1.0458 C   0  0  0  0  0  0  0  0  0  0  0  0
   -0.3222   -1.7162    1.9366 C   0  0  0  0  0  0  0  0  0  0  0  0
   -0.0955   -0.5408    2.9290 C   0  0  0  0  0  0  0  0  0  0  0  0
   -1.4152    0.0727    2.3588 C   0  0  0  0  0  0  0  0  0  0  0  0
    0.9984    0.2828    2.2071 C   0  0  0  0  0  0  0  0  0  0  0  0
    0.3696    0.2662    0.8077 C   0  0  0  0  0  0  0  0  0  0  0  0
    0.5047    1.2572   -0.2549 C   0  0  0  0  0  0  0  0  0  0  0  0
    1.1156   -0.0463   -0.3692 O   0  0  0  0  0  0  0  0  0  0  0  0
   -1.1384   -0.9820   -0.7906 H   0  0  0  0  0  0  0  0  0  0  0  0
   -1.1115   -2.3989    2.2565 H   0  0  0  0  0  0  0  0  0  0  0  0
    0.5506   -2.2686    1.5772 H   0  0  0  0  0  0  0  0  0  0  0  0
    0.0311   -0.7129    3.9959 H   0  0  0  0  0  0  0  0  0  0  0  0
   -2.3077   -0.4341    2.7309 H   0  0  0  0  0  0  0  0  0  0  0  0
   -1.5463    1.1583    2.3920 H   0  0  0  0  0  0  0  0  0  0  0  0
    1.1105    1.2935    2.6105 H   0  0  0  0  0  0  0  0  0  0  0  0
    1.9763   -0.2072    2.2145 H   0  0  0  0  0  0  0  0  0  0  0  0
   -0.3265    1.4384   -0.9339 H   0  0  0  0  0  0  0  0  0  0  0  0
    1.2048    2.0832   -0.1390 H   0  0  0  0  0  0  0  0  0  0  0  0
  1  2  1  0
  2  3  1  0
  3  4  1  0
  4  5  1  0
  4  6  1  0
  6  7  1  0
  7  8  1  0
  8  9  1  0
  5  2  1  0
  9  7  1  0
  7  2  1  0
  1 10  1  0
  3 11  1  0
  3 12  1  0
  4 13  1  0
  5 14  1  0
  5 15  1  0
  6 16  1  0
  6 17  1  0
  8 18  1  0
  8 19  1  0
M  END
$$$$
