
     RDKit          3D

 19 21  0  0  0  0  0  0  0  0999 V2000
    1.5191   -0.0183   -0.0061 C   0  0  0  0  0  0  0  0  0  0  0  0
    0.1078   -0.1647    0.0452 O   0  0  0  0  0  0  0  0  0  0  0  0
   -0.4442    0.4877    1.1434 C   0  0  0  0  0  0  0  0  0  0  0  0
   -1.9047    0.8760    1.0419 C   0  0  0  0  0  0  0  0  0  0  0  0
   -0.8285    1.9182    1.0231 C   0  0  0  0  0  0  0  0  0  0  0  0
   -0.4755    3.1924    1.8035 C   0  0  0  0  0  0  0  0  0  0  0  0
   -1.3085    4.0167    0.7897 C   0  0  0  0  0  0  0  0  0  0  0  0
   -0.4287    3.0016    0.0158 C   0  0  0  0  0  0  0  0  0  0  0  0
    0.7045    3.3607    0.9119 O   0  0  0  0  0  0  0  0  0  0  0  0
    2.0050   -0.5557    0.8227 H   0  0  0  0  0  0  0  0  0  0  0  0
    1.8528   -0.4529   -0.9512 H   0  0  0  0  0  0  0  0  0  0  0  0
    1.8124    1.0378    0.0474 H   0  0  0  0  0  0  0  0  0  0  0  0
   -0.0852    0.1325    2.1123 H   0  0  0  0  0  0  0  0  0  0  0  0
   -2.3953    0.6514    0.0999 H   0  0  0  0  0  0  0  0  0  0  0  0
   -2.5294    0.7555    1.9213 H   0  0  0  0  0  0  0  0  0  0  0  0
   -0.3254    3.3414    2.8729 H   0  0  0  0  0  0  0  0  0  0  0  0
   -2.3910    3.8718    0.7766 H   0  0  0  0  0  0  0  0  0  0  0  0
   -1.0056    5.0594    0.6860 H   0  0  0  0  0  0  0  0  0  0  0  0
   -0.2262    2.9203   -1.0515 H   0  0  0  0  0  0  0  0  0  0  0  0
  1  2  1  0
  2  3  1  0
  3  4  1  0
  4  5  1  0
  5  6  1  0
  6  7  1  0
  7  8  1  0
  8  9  1  0
  5  3  1  0
  8  5  1  0
  9  6  1  0
  1 10  1  0
  1 11  1  0
  1 12  1  0
  3 13  1  0
  4 14  1  0
  4 15  1  0
  6 16  1  0
  7 17  1  0
  7 18  1  0
  8 19  1  0
M  END
$$$$
