
     RDKit          3D

 19 19  0  0  0  0  0  0  0  0999 V2000
   -2.4331   -1.2586    0.6167 O   0  0  0  0  0  0  0  0  0  0  0  0
   -2.8721   -0.5831    1.8153 C   0  0  0  0  0  0  0  0  0  0  0  0
   -3.6479    0.6583    1.3745 C   0  0  0  0  0  0  0  0  0  0  0  0
   -2.8952    1.7671    0.6880 C   0  0  0  0  0  0  0  0  0  0  0  0
   -1.5842    1.9813    0.5753 C   0  0  0  0  0  0  0  0  0  0  0  0
   -0.4316    1.1402    1.0856 C   0  0  0  0  0  0  0  0  0  0  0  0
   -0.0140    0.1977    0.0925 O   0  0  0  0  0  0  0  0  0  0  0  0
   -0.6707    0.4693    2.4289 C   0  0  0  0  0  0  0  0  0  0  0  0
   -1.7228   -0.2826    2.7513 C   0  0  0  0  0  0  0  0  0  0  0  0
   -1.9400   -2.0382    0.8968 H   0  0  0  0  0  0  0  0  0  0  0  0
   -3.5844   -1.2397    2.3343 H   0  0  0  0  0  0  0  0  0  0  0  0
   -4.4487    0.3219    0.7026 H   0  0  0  0  0  0  0  0  0  0  0  0
   -4.1590    1.0669    2.2586 H   0  0  0  0  0  0  0  0  0  0  0  0
   -3.5537    2.4940    0.2139 H   0  0  0  0  0  0  0  0  0  0  0  0
   -1.2708    2.8449   -0.0072 H   0  0  0  0  0  0  0  0  0  0  0  0
    0.4304    1.8048    1.2029 H   0  0  0  0  0  0  0  0  0  0  0  0
   -0.7982   -0.3502   -0.0682 H   0  0  0  0  0  0  0  0  0  0  0  0
    0.1224    0.5903    3.1633 H   0  0  0  0  0  0  0  0  0  0  0  0
   -1.7672   -0.7404    3.7367 H   0  0  0  0  0  0  0  0  0  0  0  0
  1  2  1  0
  2  3  1  0
  3  4  1  0
  4  5  2  0
  5  6  1  0
  6  7  1  0
  6  8  1  0
  8  9  2  0
  9  2  1  0
  1 10  1  0
  2 11  1  0
  3 12  1  0
  3 13  1  0
  4 14  1  0
  5 15  1  0
  6 16  1  0
  7 17  1  0
  8 18  1  0
  9 19  1  0
M  END
$$$$
