gdb 5884	8.5412773	0.3818528	0.379867	1.6689	83.36	-0.24806	-0.02798	0.22008	2751.2487	0.153754	-422.533935	-422.522913	-422.521969	-422.573014	36.319
 OpenBabel02181911423D

 19 18  0  0  0  0  0  0  0  0999 V2000
    1.6861    0.6959    0.2841 O   0  0  0  0  0  0  0  0  0  0  0  0
    0.7087   -0.1964    0.7838 C   0  0  0  0  0  0  0  0  0  0  0  0
   -0.5144    0.5477    1.3584 C   0  0  0  0  0  0  0  0  0  0  0  0
   -1.5467   -0.3630    1.8366 C   0  0  0  0  0  0  0  0  0  0  0  0
   -2.3721   -1.1570    2.2097 C   0  0  0  0  0  0  0  0  0  0  0  0
   -3.3810   -2.0903    2.6948 C   0  0  0  0  0  0  0  0  0  0  0  0
   -3.8074   -1.8017    4.1538 C   0  0  0  0  0  0  0  0  0  0  0  0
   -4.9331   -2.7079    4.5990 C   0  0  0  0  0  0  0  0  0  0  0  0
   -4.9367   -3.3590    5.6107 O   0  0  0  0  0  0  0  0  0  0  0  0
    2.0801    1.1566    1.0316 H   0  0  0  0  0  0  0  0  0  0  0  0
    0.3940   -0.8116   -0.0640 H   0  0  0  0  0  0  0  0  0  0  0  0
    1.1192   -0.8734    1.5467 H   0  0  0  0  0  0  0  0  0  0  0  0
   -0.1817    1.1986    2.1793 H   0  0  0  0  0  0  0  0  0  0  0  0
   -0.9120    1.2108    0.5807 H   0  0  0  0  0  0  0  0  0  0  0  0
   -4.2658   -2.0521    2.0449 H   0  0  0  0  0  0  0  0  0  0  0  0
   -2.9994   -3.1172    2.6266 H   0  0  0  0  0  0  0  0  0  0  0  0
   -2.9671   -1.9067    4.8437 H   0  0  0  0  0  0  0  0  0  0  0  0
   -4.1697   -0.7665    4.2130 H   0  0  0  0  0  0  0  0  0  0  0  0
   -5.8031   -2.7331    3.8994 H   0  0  0  0  0  0  0  0  0  0  0  0
  1  2  1  0  0  0  0
  1 10  1  0  0  0  0
  2  3  1  0  0  0  0
  2 12  1  0  0  0  0
  3  4  1  0  0  0  0
  3 13  1  0  0  0  0
  4  5  3  0  0  0  0
  5  6  1  0  0  0  0
  6  7  1  0  0  0  0
  7 18  1  0  0  0  0
  7  8  1  0  0  0  0
  7 17  1  0  0  0  0
  8  9  2  0  0  0  0
 11  2  1  0  0  0  0
 14  3  1  0  0  0  0
 15  6  1  0  0  0  0
 16  6  1  0  0  0  0
 19  8  1  0  0  0  0
M TOR 0 0 1 2 3
M TOR 1 0 1 2 12
M TOR 2 0 1 2 13
M TOR 3 1 2 3 4
M TOR 4 2 1 0 9
M TOR 5 2 3 4 5
M TOR 6 3 2 1 10
M TOR 7 3 2 1 11
M TOR 8 3 4 5 6
M TOR 9 3 4 5 14
M TOR 10 3 4 5 15
M TOR 11 4 3 2 12
M TOR 12 4 3 2 13
M TOR 13 4 5 6 7
M TOR 14 4 5 6 16
M TOR 15 4 5 6 17
M TOR 16 5 6 7 8
M TOR 17 5 6 7 18
M TOR 18 7 6 5 14
M TOR 19 7 6 5 15
M TOR 20 8 7 6 16
M TOR 21 8 7 6 17
M  END
$$$$
