
     RDKit          3D

 19 18  0  0  0  0  0  0  0  0999 V2000
    0.5542   -0.6915   -0.9959 C   0  0  0  0  0  0  0  0  0  0  0  0
    1.1046    0.5868   -0.3598 C   0  0  0  0  0  0  0  0  0  0  0  0
    1.0842    0.5329    1.1682 C   0  0  0  0  0  0  0  0  0  0  0  0
    1.6477    1.7793    1.8154 C   0  0  0  0  0  0  0  0  0  0  0  0
    2.1557    2.7063    1.2398 O   0  0  0  0  0  0  0  0  0  0  0  0
    1.5002    1.7166    3.1643 O   0  0  0  0  0  0  0  0  0  0  0  0
    2.0430    2.8229    3.9118 C   0  0  0  0  0  0  0  0  0  0  0  0
    3.4228    2.5831    4.3125 C   0  0  0  0  0  0  0  0  0  0  0  0
    4.5569    2.3907    4.6575 C   0  0  0  0  0  0  0  0  0  0  0  0
    1.1407   -1.5688   -0.7004 H   0  0  0  0  0  0  0  0  0  0  0  0
   -0.4839   -0.8729   -0.6951 H   0  0  0  0  0  0  0  0  0  0  0  0
    0.5775   -0.6290   -2.0878 H   0  0  0  0  0  0  0  0  0  0  0  0
    2.1311    0.7663   -0.6959 H   0  0  0  0  0  0  0  0  0  0  0  0
    0.5259    1.4542   -0.6955 H   0  0  0  0  0  0  0  0  0  0  0  0
    0.0682    0.3804    1.5522 H   0  0  0  0  0  0  0  0  0  0  0  0
    1.6651   -0.3207    1.5413 H   0  0  0  0  0  0  0  0  0  0  0  0
    1.9738    3.7316    3.3078 H   0  0  0  0  0  0  0  0  0  0  0  0
    1.3982    2.9204    4.7893 H   0  0  0  0  0  0  0  0  0  0  0  0
    5.5631    2.2259    4.9548 H   0  0  0  0  0  0  0  0  0  0  0  0
  1  2  1  0
  2  3  1  0
  3  4  1  0
  4  5  2  0
  4  6  1  0
  6  7  1  0
  7  8  1  0
  8  9  3  0
  1 10  1  0
  1 11  1  0
  1 12  1  0
  2 13  1  0
  2 14  1  0
  3 15  1  0
  3 16  1  0
  7 17  1  0
  7 18  1  0
  9 19  1  0
M  END
$$$$
