
     RDKit          3D

 19 21  0  0  0  0  0  0  0  0999 V2000
   -0.1276   -0.0650   -0.3829 C   0  0  0  0  0  0  0  0  0  0  0  0
    1.3632   -0.1541   -0.1302 C   0  0  0  0  0  0  0  0  0  0  0  0
    2.2626    0.5949   -0.9022 O   0  0  0  0  0  0  0  0  0  0  0  0
    1.8792    1.9723   -0.8351 C   0  0  0  0  0  0  0  0  0  0  0  0
    1.0250    2.1430    0.4331 C   0  0  0  0  0  0  0  0  0  0  0  0
    1.7767    2.3995    1.7486 C   0  0  0  0  0  0  0  0  0  0  0  0
    1.0093    1.7676    2.7696 O   0  0  0  0  0  0  0  0  0  0  0  0
    0.3153    0.6427    2.2213 C   0  0  0  0  0  0  0  0  0  0  0  0
    0.5131    0.7363    0.7240 C   0  0  0  0  0  0  0  0  0  0  0  0
   -0.4946    0.4544   -1.2628 H   0  0  0  0  0  0  0  0  0  0  0  0
   -0.7189   -0.9303   -0.0981 H   0  0  0  0  0  0  0  0  0  0  0  0
    1.7991   -1.0839    0.2186 H   0  0  0  0  0  0  0  0  0  0  0  0
    2.7934    2.5753   -0.8343 H   0  0  0  0  0  0  0  0  0  0  0  0
    1.2982    2.2449   -1.7267 H   0  0  0  0  0  0  0  0  0  0  0  0
    0.2308    2.8817    0.2882 H   0  0  0  0  0  0  0  0  0  0  0  0
    2.7893    1.9674    1.6928 H   0  0  0  0  0  0  0  0  0  0  0  0
    1.8663    3.4581    2.0083 H   0  0  0  0  0  0  0  0  0  0  0  0
    0.7157   -0.2939    2.6354 H   0  0  0  0  0  0  0  0  0  0  0  0
   -0.7405    0.7173    2.5129 H   0  0  0  0  0  0  0  0  0  0  0  0
  1  2  1  0
  2  3  1  0
  3  4  1  0
  4  5  1  0
  5  6  1  0
  6  7  1  0
  7  8  1  0
  8  9  1  0
  9  1  1  0
  9  2  1  0
  9  5  1  0
  1 10  1  0
  1 11  1  0
  2 12  1  0
  4 13  1  0
  4 14  1  0
  5 15  1  0
  6 16  1  0
  6 17  1  0
  8 18  1  0
  8 19  1  0
M  END
$$$$
