
     RDKit          3D

 19 21  0  0  0  0  0  0  0  0999 V2000
   -0.6932    1.1836    0.2880 O   0  0  0  0  0  0  0  0  0  0  0  0
   -1.8397    0.3834    0.4032 C   0  0  0  0  0  0  0  0  0  0  0  0
   -3.0259    0.8068   -0.4474 C   0  0  0  0  0  0  0  0  0  0  0  0
   -2.2832   -0.4529   -0.7444 C   0  0  0  0  0  0  0  0  0  0  0  0
   -1.5521   -0.9650   -1.9954 C   0  0  0  0  0  0  0  0  0  0  0  0
   -1.2133   -2.2579   -1.1913 C   0  0  0  0  0  0  0  0  0  0  0  0
   -2.7153   -1.9350   -0.8897 C   0  0  0  0  0  0  0  0  0  0  0  0
   -3.6226   -2.6471   -0.1327 O   0  0  0  0  0  0  0  0  0  0  0  0
   -2.8957   -1.6529   -2.4016 C   0  0  0  0  0  0  0  0  0  0  0  0
    0.0753    0.6040    0.3051 H   0  0  0  0  0  0  0  0  0  0  0  0
   -2.0575    0.0440    1.4186 H   0  0  0  0  0  0  0  0  0  0  0  0
   -4.0163    0.7490   -0.0057 H   0  0  0  0  0  0  0  0  0  0  0  0
   -2.8591    1.6656   -1.0901 H   0  0  0  0  0  0  0  0  0  0  0  0
   -0.8836   -0.3999   -2.6390 H   0  0  0  0  0  0  0  0  0  0  0  0
   -1.0199   -3.1595   -1.7786 H   0  0  0  0  0  0  0  0  0  0  0  0
   -0.5086   -2.1520   -0.3612 H   0  0  0  0  0  0  0  0  0  0  0  0
   -3.2656   -2.7516    0.7561 H   0  0  0  0  0  0  0  0  0  0  0  0
   -2.8154   -2.5162   -3.0676 H   0  0  0  0  0  0  0  0  0  0  0  0
   -3.7188   -0.9915   -2.6783 H   0  0  0  0  0  0  0  0  0  0  0  0
  1  2  1  0
  2  3  1  0
  3  4  1  0
  4  5  1  0
  5  6  1  0
  6  7  1  0
  7  8  1  0
  7  9  1  0
  4  2  1  0
  7  4  1  0
  9  5  1  0
  1 10  1  0
  2 11  1  0
  3 12  1  0
  3 13  1  0
  5 14  1  0
  6 15  1  0
  6 16  1  0
  8 17  1  0
  9 18  1  0
  9 19  1  0
M  END
$$$$
