
     RDKit          3D

 19 20  0  0  0  0  0  0  0  0999 V2000
   -0.8367    0.8219   -0.3079 O   0  0  0  0  0  0  0  0  0  0  0  0
   -0.0966    0.6062   -1.4591 C   0  0  0  0  0  0  0  0  0  0  0  0
    0.1510    1.9069   -2.2522 C   0  0  0  0  0  0  0  0  0  0  0  0
    1.6901    1.6862   -2.1970 C   0  0  0  0  0  0  0  0  0  0  0  0
    1.5158    0.3135   -1.5140 C   0  0  0  0  0  0  0  0  0  0  0  0
    1.1947   -0.8701   -2.4596 C   0  0  0  0  0  0  0  0  0  0  0  0
   -0.3389   -0.6666   -2.2901 C   0  0  0  0  0  0  0  0  0  0  0  0
    2.2432    0.0144   -0.2568 C   0  0  0  0  0  0  0  0  0  0  0  0
    2.3899   -1.0943    0.2072 O   0  0  0  0  0  0  0  0  0  0  0  0
   -0.9685   -0.0214    0.1403 H   0  0  0  0  0  0  0  0  0  0  0  0
   -0.2980    1.9218   -3.2489 H   0  0  0  0  0  0  0  0  0  0  0  0
   -0.1923    2.7836   -1.7002 H   0  0  0  0  0  0  0  0  0  0  0  0
    2.2154    1.6648   -3.1552 H   0  0  0  0  0  0  0  0  0  0  0  0
    2.1909    2.4106   -1.5470 H   0  0  0  0  0  0  0  0  0  0  0  0
    1.5699   -0.7373   -3.4771 H   0  0  0  0  0  0  0  0  0  0  0  0
    1.5598   -1.8186   -2.0637 H   0  0  0  0  0  0  0  0  0  0  0  0
   -0.9412   -0.5399   -3.1946 H   0  0  0  0  0  0  0  0  0  0  0  0
   -0.7918   -1.4601   -1.6858 H   0  0  0  0  0  0  0  0  0  0  0  0
    2.6126    0.9115    0.2925 H   0  0  0  0  0  0  0  0  0  0  0  0
  1  2  1  0
  2  3  1  0
  3  4  1  0
  4  5  1  0
  5  6  1  0
  6  7  1  0
  5  8  1  0
  8  9  2  0
  5  2  1  0
  7  2  1  0
  1 10  1  0
  3 11  1  0
  3 12  1  0
  4 13  1  0
  4 14  1  0
  6 15  1  0
  6 16  1  0
  7 17  1  0
  7 18  1  0
  8 19  1  0
M  END
$$$$
