gdb 5597	2.9155723	1.237742	1.1174781	2.6195	74.85	-0.23636	-0.0082	0.22815999999999997	1155.4736	0.158362	-422.560542	-422.55232	-422.551376	-422.593476	31.29
 OpenBabel02181911423D

 19 20  0  0  1  0  0  0  0  0999 V2000
    0.4428   -1.8762    1.3886 O   0  0  0  0  0  0  0  0  0  0  0  0
   -0.6712   -1.2389    0.7810 C   0  0  0  0  0  0  0  0  0  0  0  0
   -0.9914    0.0950    1.4421 C   0  0  2  0  0  0  0  0  0  0  0  0
   -2.1213    1.0315    0.8773 C   0  0  2  0  0  0  0  0  0  0  0  0
   -1.6521    1.3224   -0.5686 C   0  0  0  0  0  0  0  0  0  0  0  0
   -0.1185    1.5535   -0.3166 C   0  0  0  0  0  0  0  0  0  0  0  0
   -0.0638    1.3502    1.2153 C   0  0  1  0  0  0  0  0  0  0  0  0
   -1.3335    2.1180    1.6345 C   0  0  0  0  0  0  0  0  0  0  0  0
   -1.5925    3.0392    2.3488 O   0  0  0  0  0  0  0  0  0  0  0  0
    1.2143   -1.3176    1.2490 H   0  0  0  0  0  0  0  0  0  0  0  0
   -0.5236   -1.1315   -0.3022 H   0  0  0  0  0  0  0  0  0  0  0  0
   -1.5148   -1.9230    0.9222 H   0  0  0  0  0  0  0  0  0  0  0  0
   -1.1337   -0.0761    2.5133 H   0  0  0  0  0  0  0  0  0  0  0  0
   -3.1788    0.8468    1.0549 H   0  0  0  0  0  0  0  0  0  0  0  0
   -1.8472    0.4886   -1.2466 H   0  0  0  0  0  0  0  0  0  0  0  0
   -2.1450    2.2064   -0.9809 H   0  0  0  0  0  0  0  0  0  0  0  0
    0.5066    0.8372   -0.8563 H   0  0  0  0  0  0  0  0  0  0  0  0
    0.2075    2.5561   -0.6039 H   0  0  0  0  0  0  0  0  0  0  0  0
    0.8869    1.4838    1.7285 H   0  0  0  0  0  0  0  0  0  0  0  0
  2 12  1  0  0  0  0
  2  1  1  0  0  0  0
  2  3  1  0  0  0  0
  3 13  1  1  0  0  0
  4 14  1  1  0  0  0
  4  3  1  0  0  0  0
  4  8  1  0  0  0  0
  5  6  1  0  0  0  0
  5  4  1  0  0  0  0
  6  7  1  0  0  0  0
  7  3  1  0  0  0  0
  7  8  1  0  0  0  0
  7 19  1  1  0  0  0
  8  9  2  0  0  0  0
 10  1  1  0  0  0  0
 11  2  1  0  0  0  0
 15  5  1  0  0  0  0
 16  5  1  0  0  0  0
 17  6  1  0  0  0  0
 18  6  1  0  0  0  0
M TOR 0 0 1 2 3
M TOR 1 0 1 2 6
M TOR 2 0 1 2 12
M TOR 3 1 2 3 4
M TOR 4 1 2 3 7
M TOR 5 1 2 3 13
M TOR 6 1 2 6 5
M TOR 7 1 2 6 7
M TOR 8 1 2 6 18
M TOR 9 2 1 0 9
M TOR 10 2 3 4 5
M TOR 11 2 3 4 14
M TOR 12 2 3 4 15
M TOR 13 2 3 7 6
M TOR 14 2 3 7 8
M TOR 15 2 6 5 4
M TOR 16 2 6 5 16
M TOR 17 2 6 5 17
M TOR 18 2 6 7 8
M TOR 19 3 2 1 10
M TOR 20 3 2 1 11
M TOR 21 3 2 6 5
M TOR 22 3 2 6 18
M TOR 23 3 4 5 6
M TOR 24 3 4 5 16
M TOR 25 3 4 5 17
M TOR 26 3 7 6 5
M TOR 27 3 7 6 18
M TOR 28 4 3 2 6
M TOR 29 4 3 2 12
M TOR 30 4 3 7 6
M TOR 31 4 3 7 8
M TOR 32 4 5 6 7
M TOR 33 4 5 6 18
M TOR 34 5 4 3 7
M TOR 35 5 4 3 13
M TOR 36 5 6 2 12
M TOR 37 5 6 7 8
M TOR 38 6 2 1 10
M TOR 39 6 2 1 11
M TOR 40 6 2 3 13
M TOR 41 6 5 4 14
M TOR 42 6 5 4 15
M TOR 43 6 7 3 13
M TOR 44 7 3 2 12
M TOR 45 7 3 4 14
M TOR 46 7 3 4 15
M TOR 47 7 6 2 12
M TOR 48 7 6 5 16
M TOR 49 7 6 5 17
M TOR 50 8 7 3 13
M TOR 51 8 7 6 18
M  END
$$$$
