gdb 3177	2.775292	1.3372773	1.0121152	2.978	75.28	-0.25218	-0.02506	0.22712000000000002	1182.4573	0.156382	-422.567735	-422.559149	-422.558205	-422.601564	31.654
 OpenBabel02181911413D

 19 20  0  0  1  0  0  0  0  0999 V2000
    0.6912    0.9721   -0.2268 C   0  0  0  0  0  0  0  0  0  0  0  0
    1.0498   -0.5049   -0.0578 C   0  0  1  0  0  0  0  0  0  0  0  0
    1.8154   -1.1106   -1.2220 C   0  0  1  0  0  0  0  0  0  0  0  0
    3.1944   -0.7154   -1.2644 O   0  0  0  0  0  0  0  0  0  0  0  0
    2.8630   -2.0029   -0.7225 C   0  0  1  0  0  0  0  0  0  0  0  0
    2.8198   -2.0275    0.7917 C   0  0  0  0  0  0  0  0  0  0  0  0
    1.9886   -0.7730    1.1672 C   0  0  2  0  0  0  0  0  0  0  0  0
    1.1744   -0.9593    2.4241 C   0  0  0  0  0  0  0  0  0  0  0  0
    1.1196   -0.1827    3.3418 O   0  0  0  0  0  0  0  0  0  0  0  0
    0.2349    1.3725    0.6836 H   0  0  0  0  0  0  0  0  0  0  0  0
    1.5906    1.5569   -0.4426 H   0  0  0  0  0  0  0  0  0  0  0  0
   -0.0154    1.1159   -1.0504 H   0  0  0  0  0  0  0  0  0  0  0  0
    0.1262   -1.0923    0.0606 H   0  0  0  0  0  0  0  0  0  0  0  0
    1.3344   -1.2367   -2.1896 H   0  0  0  0  0  0  0  0  0  0  0  0
    3.2364   -2.8559   -1.2834 H   0  0  0  0  0  0  0  0  0  0  0  0
    2.3171   -2.9484    1.1181 H   0  0  0  0  0  0  0  0  0  0  0  0
    3.8123   -2.0155    1.2511 H   0  0  0  0  0  0  0  0  0  0  0  0
    2.6416    0.0895    1.3105 H   0  0  0  0  0  0  0  0  0  0  0  0
    0.5743   -1.9027    2.4355 H   0  0  0  0  0  0  0  0  0  0  0  0
  1  2  1  0  0  0  0
  1 10  1  0  0  0  0
  2 13  1  1  0  0  0
  2  7  1  0  0  0  0
  3 14  1  6  0  0  0
  3  5  1  0  0  0  0
  3  2  1  0  0  0  0
  4  3  1  0  0  0  0
  4  5  1  0  0  0  0
  5 15  1  6  0  0  0
  5  6  1  0  0  0  0
  6 16  1  0  0  0  0
  6  7  1  0  0  0  0
  6 17  1  0  0  0  0
  7 18  1  1  0  0  0
  7  8  1  0  0  0  0
  8 19  1  0  0  0  0
  8  9  2  0  0  0  0
 11  1  1  0  0  0  0
 12  1  1  0  0  0  0
M TOR 0 0 1 2 3
M TOR 1 0 1 2 4
M TOR 2 0 1 2 13
M TOR 3 0 1 6 5
M TOR 4 0 1 6 7
M TOR 5 0 1 6 17
M TOR 6 1 2 3 4
M TOR 7 1 2 4 5
M TOR 8 1 2 4 14
M TOR 9 1 6 5 4
M TOR 10 1 6 5 15
M TOR 11 1 6 5 16
M TOR 12 1 6 7 8
M TOR 13 1 6 7 18
M TOR 14 2 1 0 9
M TOR 15 2 1 0 10
M TOR 16 2 1 0 11
M TOR 17 2 1 6 5
M TOR 18 2 1 6 7
M TOR 19 2 1 6 17
M TOR 20 2 3 4 5
M TOR 21 2 3 4 14
M TOR 22 2 4 5 6
M TOR 23 2 4 5 15
M TOR 24 2 4 5 16
M TOR 25 3 2 1 6
M TOR 26 3 2 1 12
M TOR 27 3 4 2 13
M TOR 28 3 4 5 6
M TOR 29 3 4 5 15
M TOR 30 3 4 5 16
M TOR 31 4 2 1 6
M TOR 32 4 2 1 12
M TOR 33 4 5 6 7
M TOR 34 4 5 6 17
M TOR 35 5 4 2 13
M TOR 36 5 6 1 12
M TOR 37 5 6 7 8
M TOR 38 5 6 7 18
M TOR 39 6 1 0 9
M TOR 40 6 1 0 10
M TOR 41 6 1 0 11
M TOR 42 6 1 2 13
M TOR 43 6 5 4 14
M TOR 44 7 6 1 12
M TOR 45 7 6 5 15
M TOR 46 7 6 5 16
M TOR 47 8 7 6 17
M  END
$$$$
