
     RDKit          3D

 19 20  0  0  0  0  0  0  0  0999 V2000
   -0.2999    1.7799   -2.5978 O   0  0  0  0  0  0  0  0  0  0  0  0
    0.5383    2.4876   -1.6784 C   0  0  0  0  0  0  0  0  0  0  0  0
    0.6324    1.7667   -0.3116 C   0  0  0  0  0  0  0  0  0  0  0  0
    1.6349    0.7793   -0.1857 O   0  0  0  0  0  0  0  0  0  0  0  0
    1.6871   -0.1709   -1.2072 C   0  0  0  0  0  0  0  0  0  0  0  0
    3.0738   -0.6291   -1.5488 C   0  0  0  0  0  0  0  0  0  0  0  0
    2.2930    0.2385   -2.5233 C   0  0  0  0  0  0  0  0  0  0  0  0
    2.6556    1.6661   -2.7257 C   0  0  0  0  0  0  0  0  0  0  0  0
    1.8836    2.6820   -2.3402 C   0  0  0  0  0  0  0  0  0  0  0  0
   -1.1631    1.6767   -2.1823 H   0  0  0  0  0  0  0  0  0  0  0  0
    0.0959    3.4752   -1.4722 H   0  0  0  0  0  0  0  0  0  0  0  0
    0.8603    2.4997    0.4697 H   0  0  0  0  0  0  0  0  0  0  0  0
   -0.3626    1.3422   -0.0867 H   0  0  0  0  0  0  0  0  0  0  0  0
    0.8675   -0.8897   -1.2083 H   0  0  0  0  0  0  0  0  0  0  0  0
    3.8723   -0.1556   -0.9883 H   0  0  0  0  0  0  0  0  0  0  0  0
    3.2372   -1.6718   -1.7967 H   0  0  0  0  0  0  0  0  0  0  0  0
    1.9143   -0.2718   -3.4061 H   0  0  0  0  0  0  0  0  0  0  0  0
    3.5969    1.8731   -3.2325 H   0  0  0  0  0  0  0  0  0  0  0  0
    2.2050    3.7042   -2.5160 H   0  0  0  0  0  0  0  0  0  0  0  0
  1  2  1  0
  2  3  1  0
  3  4  1  0
  4  5  1  0
  5  6  1  0
  6  7  1  0
  7  8  1  0
  8  9  2  0
  9  2  1  0
  7  5  1  0
  1 10  1  0
  2 11  1  0
  3 12  1  0
  3 13  1  0
  5 14  1  0
  6 15  1  0
  6 16  1  0
  7 17  1  0
  8 18  1  0
  9 19  1  0
M  END
$$$$
