gdb 2195	2.8662709	1.9434771	1.6861815	2.0854	73.29	-0.24675	0.091	0.33775	898.1935	0.159251	-422.571796	-422.564978	-422.564033	-422.602438	28.6
 OpenBabel02181911413D

 19 21  0  0  1  0  0  0  0  0999 V2000
    0.0318    0.2737    0.2682 C   0  0  0  0  0  0  0  0  0  0  0  0
    1.0914   -0.2992   -0.6376 C   0  0  1  0  0  0  0  0  0  0  0  0
    0.8144   -0.5857   -2.1365 C   0  0  0  0  0  0  0  0  0  0  0  0
    2.3355   -0.4229   -2.3440 C   0  0  2  0  0  0  0  0  0  0  0  0
    3.0071   -1.6244   -1.9225 O   0  0  0  0  0  0  0  0  0  0  0  0
    2.9862   -1.5441   -0.5040 C   0  0  1  0  0  0  0  0  0  0  0  0
    3.5051   -0.1288   -0.2179 C   0  0  0  0  0  0  0  0  0  0  0  0
    2.3976    0.4819   -1.0607 C   0  0  2  0  0  0  0  0  0  0  0  0
    1.6427   -1.5028   -0.0476 O   0  0  0  0  0  0  0  0  0  0  0  0
    0.4525    0.5413    1.2424 H   0  0  0  0  0  0  0  0  0  0  0  0
   -0.4155    1.1667   -0.1786 H   0  0  0  0  0  0  0  0  0  0  0  0
   -0.7624   -0.4616    0.4339 H   0  0  0  0  0  0  0  0  0  0  0  0
    0.3774   -1.5541   -2.3869 H   0  0  0  0  0  0  0  0  0  0  0  0
    0.2515    0.2273   -2.6067 H   0  0  0  0  0  0  0  0  0  0  0  0
    2.7420   -0.1034   -3.3040 H   0  0  0  0  0  0  0  0  0  0  0  0
    3.4890   -2.4126   -0.0828 H   0  0  0  0  0  0  0  0  0  0  0  0
    3.4563    0.1311    0.8415 H   0  0  0  0  0  0  0  0  0  0  0  0
    4.5103    0.0399   -0.6096 H   0  0  0  0  0  0  0  0  0  0  0  0
    2.3235    1.5587   -1.1894 H   0  0  0  0  0  0  0  0  0  0  0  0
  1 12  1  0  0  0  0
  1 10  1  0  0  0  0
  2  9  1  0  0  0  0
  2  1  1  1  0  0  0
  3  2  1  0  0  0  0
  4 15  1  6  0  0  0
  4  3  1  0  0  0  0
  4  5  1  0  0  0  0
  4  8  1  0  0  0  0
  5  6  1  0  0  0  0
  6  7  1  0  0  0  0
  6 16  1  1  0  0  0
  6  9  1  0  0  0  0
  7 17  1  0  0  0  0
  8 19  1  6  0  0  0
  8  2  1  0  0  0  0
  8  7  1  0  0  0  0
 11  1  1  0  0  0  0
 13  3  1  0  0  0  0
 14  3  1  0  0  0  0
 18  7  1  0  0  0  0
M TOR 0 0 1 2 3
M TOR 1 0 1 2 12
M TOR 2 0 1 2 13
M TOR 3 0 1 7 3
M TOR 4 0 1 7 6
M TOR 5 0 1 7 18
M TOR 6 0 1 8 5
M TOR 7 1 2 3 4
M TOR 8 1 2 3 7
M TOR 9 1 2 3 14
M TOR 10 1 7 3 4
M TOR 11 1 7 3 14
M TOR 12 1 7 6 5
M TOR 13 1 7 6 16
M TOR 14 1 7 6 17
M TOR 15 1 8 5 4
M TOR 16 1 8 5 6
M TOR 17 1 8 5 15
M TOR 18 2 1 0 9
M TOR 19 2 1 0 10
M TOR 20 2 1 0 11
M TOR 21 2 1 7 6
M TOR 22 2 1 7 18
M TOR 23 2 1 8 5
M TOR 24 2 3 4 5
M TOR 25 2 3 7 6
M TOR 26 2 3 7 18
M TOR 27 3 2 1 8
M TOR 28 3 4 5 6
M TOR 29 3 4 5 8
M TOR 30 3 4 5 15
M TOR 31 3 7 1 8
M TOR 32 3 7 6 5
M TOR 33 3 7 6 16
M TOR 34 3 7 6 17
M TOR 35 4 3 2 12
M TOR 36 4 3 2 13
M TOR 37 4 3 7 6
M TOR 38 4 3 7 18
M TOR 39 4 5 6 7
M TOR 40 4 5 6 16
M TOR 41 4 5 6 17
M TOR 42 5 4 3 7
M TOR 43 5 4 3 14
M TOR 44 5 6 7 18
M TOR 45 5 8 1 7
M TOR 46 6 7 1 8
M TOR 47 6 7 3 14
M TOR 48 7 1 0 9
M TOR 49 7 1 0 10
M TOR 50 7 1 0 11
M TOR 51 7 1 2 12
M TOR 52 7 1 2 13
M TOR 53 7 3 2 12
M TOR 54 7 3 2 13
M TOR 55 7 6 5 8
M TOR 56 7 6 5 15
M TOR 57 8 1 0 9
M TOR 58 8 1 0 10
M TOR 59 8 1 0 11
M TOR 60 8 1 2 12
M TOR 61 8 1 2 13
M TOR 62 8 1 7 18
M TOR 63 8 5 6 16
M TOR 64 8 5 6 17
M  END
$$$$
