gdb 5757	4.3395905	1.1037123	1.069814	2.6612	74.69	-0.24245	0.0549	0.29735	1206.6082	0.156417	-422.485957	-422.477992	-422.477048	-422.51853	30.548
 OpenBabel02181911423D

 19 21  0  0  1  0  0  0  0  0999 V2000
    1.3288   -0.1624    1.1002 C   0  0  0  0  0  0  0  0  0  0  0  0
    0.8946    0.2611   -0.3060 C   0  0  0  0  0  0  0  0  0  0  0  0
    1.7285   -0.3992   -1.3900 C   0  0  1  0  0  0  0  0  0  0  0  0
    1.5709   -1.8554   -1.3785 O   0  0  0  0  0  0  0  0  0  0  0  0
    1.0499   -1.8552   -2.7104 C   0  0  2  0  0  0  0  0  0  0  0  0
    2.0928   -2.0099   -3.8626 C   0  0  2  0  0  0  0  0  0  0  0  0
    3.2759   -1.3107   -3.4759 O   0  0  0  0  0  0  0  0  0  0  0  0
    2.1902   -0.5395   -3.9878 C   0  0  2  0  0  0  0  0  0  0  0  0
    1.1749   -0.3211   -2.8358 C   0  0  2  0  0  0  0  0  0  0  0  0
    1.2660   -1.2491    1.2045 H   0  0  0  0  0  0  0  0  0  0  0  0
    2.3639    0.1348    1.3009 H   0  0  0  0  0  0  0  0  0  0  0  0
    0.6939    0.2939    1.8654 H   0  0  0  0  0  0  0  0  0  0  0  0
   -0.1618    0.0094   -0.4632 H   0  0  0  0  0  0  0  0  0  0  0  0
    0.9835    1.3497   -0.4242 H   0  0  0  0  0  0  0  0  0  0  0  0
    2.7873   -0.1354   -1.2931 H   0  0  0  0  0  0  0  0  0  0  0  0
    0.1192   -2.4152   -2.8323 H   0  0  0  0  0  0  0  0  0  0  0  0
    2.2054   -2.8062   -4.5902 H   0  0  0  0  0  0  0  0  0  0  0  0
    2.3889    0.0913   -4.8467 H   0  0  0  0  0  0  0  0  0  0  0  0
    0.3236    0.3265   -3.0386 H   0  0  0  0  0  0  0  0  0  0  0  0
  1 10  1  0  0  0  0
  1 11  1  0  0  0  0
  1 12  1  0  0  0  0
  2  1  1  0  0  0  0
  3  4  1  0  0  0  0
  3 15  1  1  0  0  0
  3  2  1  0  0  0  0
  5 16  1  6  0  0  0
  5  4  1  0  0  0  0
  6 17  1  6  0  0  0
  6  7  1  0  0  0  0
  6  5  1  0  0  0  0
  8 18  1  6  0  0  0
  8  6  1  0  0  0  0
  8  7  1  0  0  0  0
  8  9  1  0  0  0  0
  9 19  1  6  0  0  0
  9  5  1  0  0  0  0
  9  3  1  0  0  0  0
 13  2  1  0  0  0  0
 14  2  1  0  0  0  0
M TOR 0 0 1 2 3
M TOR 1 0 1 2 8
M TOR 2 0 1 2 14
M TOR 3 1 2 3 4
M TOR 4 1 2 8 4
M TOR 5 1 2 8 7
M TOR 6 1 2 8 18
M TOR 7 2 1 0 9
M TOR 8 2 1 0 10
M TOR 9 2 1 0 11
M TOR 10 2 3 4 5
M TOR 11 2 3 4 8
M TOR 12 2 3 4 15
M TOR 13 2 8 4 5
M TOR 14 2 8 4 15
M TOR 15 2 8 7 5
M TOR 16 2 8 7 6
M TOR 17 2 8 7 17
M TOR 18 3 2 1 12
M TOR 19 3 2 1 13
M TOR 20 3 2 8 7
M TOR 21 3 2 8 18
M TOR 22 3 4 5 6
M TOR 23 3 4 5 7
M TOR 24 3 4 5 16
M TOR 25 3 4 8 7
M TOR 26 3 4 8 18
M TOR 27 4 3 2 14
M TOR 28 4 5 6 7
M TOR 29 4 5 7 8
M TOR 30 4 5 7 17
M TOR 31 4 8 2 14
M TOR 32 4 8 7 6
M TOR 33 4 8 7 17
M TOR 34 5 4 8 18
M TOR 35 5 6 7 8
M TOR 36 5 6 7 17
M TOR 37 5 7 8 18
M TOR 38 6 5 4 8
M TOR 39 6 5 4 15
M TOR 40 6 7 5 16
M TOR 41 6 7 8 18
M TOR 42 7 5 4 15
M TOR 43 7 8 2 14
M TOR 44 7 8 4 15
M TOR 45 8 2 1 12
M TOR 46 8 2 1 13
M TOR 47 8 4 5 16
M TOR 48 8 7 5 16
M  END
$$$$
