
     RDKit          3D

 19 21  0  0  0  0  0  0  0  0999 V2000
   -1.5015    3.4114   -9.8103 C   0  0  0  0  0  0  0  0  0  0  0  0
   -1.2936    3.4478   -8.3193 C   0  0  0  0  0  0  0  0  0  0  0  0
   -0.2766    4.3307   -7.8280 O   0  0  0  0  0  0  0  0  0  0  0  0
   -0.0793    2.9183   -7.6786 C   0  0  0  0  0  0  0  0  0  0  0  0
   -0.0778    2.4091   -6.2894 C   0  0  0  0  0  0  0  0  0  0  0  0
   -0.9239    2.8674   -5.0905 C   0  0  0  0  0  0  0  0  0  0  0  0
    0.2500    2.4137   -4.1519 C   0  0  0  0  0  0  0  0  0  0  0  0
    1.0255    1.9834   -5.4041 C   0  0  0  0  0  0  0  0  0  0  0  0
    0.2205    1.0186   -6.0955 O   0  0  0  0  0  0  0  0  0  0  0  0
   -2.0878    2.5310  -10.0938 H   0  0  0  0  0  0  0  0  0  0  0  0
   -2.0451    4.3010  -10.1450 H   0  0  0  0  0  0  0  0  0  0  0  0
   -0.5429    3.3780  -10.3350 H   0  0  0  0  0  0  0  0  0  0  0  0
   -2.2041    3.4614   -7.7175 H   0  0  0  0  0  0  0  0  0  0  0  0
    0.6960    2.4897   -8.3148 H   0  0  0  0  0  0  0  0  0  0  0  0
   -1.0789    3.9477   -5.0772 H   0  0  0  0  0  0  0  0  0  0  0  0
   -1.8788    2.3500   -4.9729 H   0  0  0  0  0  0  0  0  0  0  0  0
    0.7129    3.2514   -3.6259 H   0  0  0  0  0  0  0  0  0  0  0  0
    0.0341    1.6096   -3.4449 H   0  0  0  0  0  0  0  0  0  0  0  0
    2.0958    1.9427   -5.5735 H   0  0  0  0  0  0  0  0  0  0  0  0
  1  2  1  0
  2  3  1  0
  3  4  1  0
  4  5  1  0
  5  6  1  0
  6  7  1  0
  7  8  1  0
  8  9  1  0
  4  2  1  0
  8  5  1  0
  9  5  1  0
  1 10  1  0
  1 11  1  0
  1 12  1  0
  2 13  1  0
  4 14  1  0
  6 15  1  0
  6 16  1  0
  7 17  1  0
  7 18  1  0
  8 19  1  0
M  END
$$$$
