gdb 4697	3.4516801	0.5952485	0.5155884	2.11	81.38	-0.23589	-0.01852	0.21736999999999998	2101.1452	0.152785	-422.544655	-422.533269	-422.532325	-422.585198	37.375
 OpenBabel02181911413D

 19 18  0  0  0  0  0  0  0  0999 V2000
    1.5915   -0.0918   -0.1089 C   0  0  0  0  0  0  0  0  0  0  0  0
    0.1474   -0.1047    0.0785 C   0  0  0  0  0  0  0  0  0  0  0  0
   -1.0453   -0.1074    0.2440 C   0  0  0  0  0  0  0  0  0  0  0  0
   -2.4930   -0.1278    0.4202 C   0  0  0  0  0  0  0  0  0  0  0  0
   -3.2073   -0.9200   -0.6855 C   0  0  0  0  0  0  0  0  0  0  0  0
   -4.7104   -0.9739   -0.4889 C   0  0  0  0  0  0  0  0  0  0  0  0
   -5.2678   -0.4871    0.4684 O   0  0  0  0  0  0  0  0  0  0  0  0
   -5.5396   -1.6536   -1.5870 C   0  0  0  0  0  0  0  0  0  0  0  0
   -4.8040   -2.4288   -2.5122 O   0  0  0  0  0  0  0  0  0  0  0  0
    2.1136   -0.4504    0.7852 H   0  0  0  0  0  0  0  0  0  0  0  0
    1.8914   -0.7332   -0.9453 H   0  0  0  0  0  0  0  0  0  0  0  0
    1.9576    0.9189   -0.3215 H   0  0  0  0  0  0  0  0  0  0  0  0
   -2.7545   -0.5584    1.3936 H   0  0  0  0  0  0  0  0  0  0  0  0
   -2.8892    0.8942    0.4417 H   0  0  0  0  0  0  0  0  0  0  0  0
   -2.9975   -0.5033   -1.6781 H   0  0  0  0  0  0  0  0  0  0  0  0
   -2.8232   -1.9468   -0.7363 H   0  0  0  0  0  0  0  0  0  0  0  0
   -6.3503   -2.2130   -1.1010 H   0  0  0  0  0  0  0  0  0  0  0  0
   -6.0143   -0.8494   -2.1633 H   0  0  0  0  0  0  0  0  0  0  0  0
   -4.5777   -3.2658   -2.0956 H   0  0  0  0  0  0  0  0  0  0  0  0
  1  2  1  0  0  0  0
  1 10  1  0  0  0  0
  2  3  3  0  0  0  0
  3  4  1  0  0  0  0
  4 14  1  0  0  0  0
  4 13  1  0  0  0  0
  5  6  1  0  0  0  0
  5  4  1  0  0  0  0
  6  7  2  0  0  0  0
  8 17  1  0  0  0  0
  8  6  1  0  0  0  0
  9 19  1  0  0  0  0
  9  8  1  0  0  0  0
 11  1  1  0  0  0  0
 12  1  1  0  0  0  0
 15  5  1  0  0  0  0
 16  5  1  0  0  0  0
 18  8  1  0  0  0  0
M TOR 0 0 1 2 3
M TOR 1 1 2 3 4
M TOR 2 1 2 3 12
M TOR 3 1 2 3 13
M TOR 4 2 1 0 9
M TOR 5 2 1 0 10
M TOR 6 2 1 0 11
M TOR 7 2 3 4 5
M TOR 8 2 3 4 14
M TOR 9 2 3 4 15
M TOR 10 3 4 5 6
M TOR 11 3 4 5 7
M TOR 12 4 5 7 8
M TOR 13 4 5 7 16
M TOR 14 4 5 7 17
M TOR 15 5 4 3 12
M TOR 16 5 4 3 13
M TOR 17 5 7 8 18
M TOR 18 6 5 4 14
M TOR 19 6 5 4 15
M TOR 20 6 5 7 8
M TOR 21 6 5 7 16
M TOR 22 6 5 7 17
M TOR 23 7 5 4 14
M TOR 24 7 5 4 15
M  END
$$$$
