gdb 2590	2.0571064	1.7115373	1.0492245	2.3205	78.45	-0.22975	-0.01467	0.21508000000000002	1171.2152	0.156736	-422.576341	-422.567673	-422.566729	-422.609875	32.37
 OpenBabel02181911413D

 19 19  0  0  0  0  0  0  0  0999 V2000
    1.5986    0.0285    0.7277 C   0  0  0  0  0  0  0  0  0  0  0  0
    0.1041   -0.1318    0.6352 C   0  0  0  0  0  0  0  0  0  0  0  0
   -0.7015    0.9161    0.4413 C   0  0  0  0  0  0  0  0  0  0  0  0
   -2.2010    0.9290    0.3176 C   0  0  0  0  0  0  0  0  0  0  0  0
   -2.8396   -0.3285    0.4293 O   0  0  0  0  0  0  0  0  0  0  0  0
   -2.5622   -1.2100   -0.6318 C   0  0  0  0  0  0  0  0  0  0  0  0
   -1.2048   -1.9153   -0.5160 C   0  0  0  0  0  0  0  0  0  0  0  0
   -0.8279   -2.6778   -1.3710 O   0  0  0  0  0  0  0  0  0  0  0  0
   -0.3968   -1.5700    0.7286 C   0  0  0  0  0  0  0  0  0  0  0  0
    1.9766   -0.3614    1.6813 H   0  0  0  0  0  0  0  0  0  0  0  0
    2.1009   -0.5432   -0.0630 H   0  0  0  0  0  0  0  0  0  0  0  0
    1.9022    1.0748    0.6409 H   0  0  0  0  0  0  0  0  0  0  0  0
   -0.2533    1.9060    0.3647 H   0  0  0  0  0  0  0  0  0  0  0  0
   -2.6324    1.5486    1.1143 H   0  0  0  0  0  0  0  0  0  0  0  0
   -2.4833    1.4112   -0.6370 H   0  0  0  0  0  0  0  0  0  0  0  0
   -3.3357   -1.9863   -0.6173 H   0  0  0  0  0  0  0  0  0  0  0  0
   -2.6180   -0.7117   -1.6122 H   0  0  0  0  0  0  0  0  0  0  0  0
   -1.0295   -1.6972    1.6130 H   0  0  0  0  0  0  0  0  0  0  0  0
    0.4414   -2.2666    0.7885 H   0  0  0  0  0  0  0  0  0  0  0  0
  1 10  1  0  0  0  0
  2  1  1  0  0  0  0
  2  9  1  0  0  0  0
  3  2  2  0  0  0  0
  4  5  1  0  0  0  0
  4  3  1  0  0  0  0
  4 14  1  0  0  0  0
  6 16  1  0  0  0  0
  6  7  1  0  0  0  0
  6  5  1  0  0  0  0
  7  9  1  0  0  0  0
  8  7  2  0  0  0  0
  9 19  1  0  0  0  0
  9 18  1  0  0  0  0
 11  1  1  0  0  0  0
 12  1  1  0  0  0  0
 13  3  1  0  0  0  0
 15  4  1  0  0  0  0
 17  6  1  0  0  0  0
M TOR 0 0 1 2 3
M TOR 1 0 1 2 12
M TOR 2 0 1 8 6
M TOR 3 0 1 8 17
M TOR 4 0 1 8 18
M TOR 5 1 2 3 4
M TOR 6 1 2 3 13
M TOR 7 1 2 3 14
M TOR 8 1 8 6 5
M TOR 9 1 8 6 7
M TOR 10 2 1 0 9
M TOR 11 2 1 0 10
M TOR 12 2 1 0 11
M TOR 13 2 1 8 6
M TOR 14 2 1 8 17
M TOR 15 2 1 8 18
M TOR 16 2 3 4 5
M TOR 17 3 2 1 8
M TOR 18 3 4 5 6
M TOR 19 3 4 5 15
M TOR 20 3 4 5 16
M TOR 21 4 3 2 12
M TOR 22 4 5 6 7
M TOR 23 4 5 6 8
M TOR 24 5 4 3 13
M TOR 25 5 4 3 14
M TOR 26 5 6 8 17
M TOR 27 5 6 8 18
M TOR 28 7 6 5 15
M TOR 29 7 6 5 16
M TOR 30 7 6 8 17
M TOR 31 7 6 8 18
M TOR 32 8 1 0 9
M TOR 33 8 1 0 10
M TOR 34 8 1 0 11
M TOR 35 8 1 2 12
M TOR 36 8 6 5 15
M TOR 37 8 6 5 16
M  END
$$$$
