gdb 5527	4.4389068	1.1300729	1.0930747	3.2077	73.83	-0.2459	0.06971	0.31561	1178.4935	0.15729	-422.495442	-422.487783	-422.486839	-422.52767	29.91
 OpenBabel02181911423D

 19 21  0  0  1  0  0  0  0  0999 V2000
    3.9582   -0.5327   -3.4176 C   0  0  0  0  0  0  0  0  0  0  0  0
    3.0202   -1.5677   -2.7860 C   0  0  0  0  0  0  0  0  0  0  0  0
    2.1367   -0.9779   -1.6948 C   0  0  1  0  0  0  0  0  0  0  0  0
    0.8887   -0.1544   -2.1642 C   0  0  1  0  0  0  0  0  0  0  0  0
    0.1920   -1.4080   -2.3793 O   0  0  0  0  0  0  0  0  0  0  0  0
    0.9346   -1.8570   -1.2164 C   0  0  2  0  0  0  0  0  0  0  0  0
    0.3441   -0.9656   -0.0850 C   0  0  2  0  0  0  0  0  0  0  0  0
   -0.8985   -0.3549   -0.4343 O   0  0  0  0  0  0  0  0  0  0  0  0
    0.3108    0.3127   -0.7963 C   0  0  2  0  0  0  0  0  0  0  0  0
    4.6185   -0.0823   -2.6678 H   0  0  0  0  0  0  0  0  0  0  0  0
    4.5900   -0.9905   -4.1845 H   0  0  0  0  0  0  0  0  0  0  0  0
    3.3963    0.2782   -3.8934 H   0  0  0  0  0  0  0  0  0  0  0  0
    2.3838   -2.0192   -3.5537 H   0  0  0  0  0  0  0  0  0  0  0  0
    3.6165   -2.3812   -2.3525 H   0  0  0  0  0  0  0  0  0  0  0  0
    2.7371   -0.5173   -0.8998 H   0  0  0  0  0  0  0  0  0  0  0  0
    0.8816    0.5213   -3.0187 H   0  0  0  0  0  0  0  0  0  0  0  0
    0.9789   -2.9391   -1.0955 H   0  0  0  0  0  0  0  0  0  0  0  0
    0.5592   -1.1114    0.9674 H   0  0  0  0  0  0  0  0  0  0  0  0
    0.4962    1.2920   -0.3699 H   0  0  0  0  0  0  0  0  0  0  0  0
  1  2  1  0  0  0  0
  1 10  1  0  0  0  0
  2 14  1  0  0  0  0
  2  3  1  0  0  0  0
  3  6  1  0  0  0  0
  3 15  1  1  0  0  0
  4 16  1  6  0  0  0
  4  3  1  0  0  0  0
  4  9  1  0  0  0  0
  5  4  1  0  0  0  0
  5  6  1  0  0  0  0
  6 17  1  1  0  0  0
  6  7  1  0  0  0  0
  7 18  1  1  0  0  0
  8  7  1  0  0  0  0
  9  8  1  0  0  0  0
  9 19  1  1  0  0  0
  9  7  1  0  0  0  0
 11  1  1  0  0  0  0
 12  1  1  0  0  0  0
 13  2  1  0  0  0  0
M TOR 0 0 1 2 3
M TOR 1 0 1 2 5
M TOR 2 0 1 2 14
M TOR 3 1 2 3 4
M TOR 4 1 2 3 8
M TOR 5 1 2 3 15
M TOR 6 1 2 5 4
M TOR 7 1 2 5 6
M TOR 8 1 2 5 16
M TOR 9 2 1 0 9
M TOR 10 2 1 0 10
M TOR 11 2 1 0 11
M TOR 12 2 3 4 5
M TOR 13 2 3 8 6
M TOR 14 2 3 8 7
M TOR 15 2 3 8 18
M TOR 16 2 5 6 7
M TOR 17 2 5 6 8
M TOR 18 2 5 6 17
M TOR 19 3 2 1 12
M TOR 20 3 2 1 13
M TOR 21 3 2 5 6
M TOR 22 3 2 5 16
M TOR 23 3 4 5 6
M TOR 24 3 4 5 16
M TOR 25 3 8 6 5
M TOR 26 3 8 6 7
M TOR 27 3 8 6 17
M TOR 28 4 3 2 14
M TOR 29 4 3 8 6
M TOR 30 4 3 8 7
M TOR 31 4 3 8 18
M TOR 32 4 5 2 14
M TOR 33 4 5 6 7
M TOR 34 4 5 6 8
M TOR 35 4 5 6 17
M TOR 36 5 2 1 12
M TOR 37 5 2 1 13
M TOR 38 5 2 3 8
M TOR 39 5 2 3 15
M TOR 40 5 4 3 8
M TOR 41 5 4 3 15
M TOR 42 5 6 7 8
M TOR 43 5 6 8 18
M TOR 44 6 5 2 14
M TOR 45 6 7 8 18
M TOR 46 6 8 3 15
M TOR 47 7 6 5 16
M TOR 48 7 8 3 15
M TOR 49 7 8 6 17
M TOR 50 8 3 2 14
M TOR 51 8 6 5 16
M  END
$$$$
