gdb 2623	2.603074	1.5666823	1.1091077	3.133	74.85	-0.23985	-0.01905	0.2208	1114.4043	0.156045	-422.574244	-422.565586	-422.564642	-422.607712	32.429
 OpenBabel02181911413D

 19 20  0  0  1  0  0  0  0  0999 V2000
   -1.1629   -2.0446    1.1646 C   0  0  0  0  0  0  0  0  0  0  0  0
   -0.8683   -1.0129    0.0808 C   0  0  2  0  0  0  0  0  0  0  0  0
   -0.3455    0.3297    0.6266 C   0  0  0  0  0  0  0  0  0  0  0  0
    0.3927    0.4543    1.5686 O   0  0  0  0  0  0  0  0  0  0  0  0
   -0.9260    1.4728   -0.2169 C   0  0  0  0  0  0  0  0  0  0  0  0
   -1.6599    0.7848   -1.3822 C   0  0  0  0  0  0  0  0  0  0  0  0
   -2.0199   -0.5869   -0.8226 C   0  0  1  0  0  0  0  0  0  0  0  0
   -2.9816   -1.4944   -1.4451 C   0  0  0  0  0  0  0  0  0  0  0  0
   -3.3460   -0.7242   -0.2916 O   0  0  0  0  0  0  0  0  0  0  0  0
   -1.3074   -3.0423    0.7403 H   0  0  0  0  0  0  0  0  0  0  0  0
   -0.3255   -2.0830    1.8655 H   0  0  0  0  0  0  0  0  0  0  0  0
   -2.0679   -1.7735    1.7124 H   0  0  0  0  0  0  0  0  0  0  0  0
   -0.0591   -1.3810   -0.5712 H   0  0  0  0  0  0  0  0  0  0  0  0
   -1.6257    2.0223    0.4244 H   0  0  0  0  0  0  0  0  0  0  0  0
   -0.1439    2.1760   -0.5120 H   0  0  0  0  0  0  0  0  0  0  0  0
   -2.5520    1.3179   -1.7165 H   0  0  0  0  0  0  0  0  0  0  0  0
   -0.9914    0.6679   -2.2432 H   0  0  0  0  0  0  0  0  0  0  0  0
   -3.4746   -1.2046   -2.3728 H   0  0  0  0  0  0  0  0  0  0  0  0
   -2.9036   -2.5684   -1.2812 H   0  0  0  0  0  0  0  0  0  0  0  0
  1 12  1  0  0  0  0
  1 11  1  0  0  0  0
  2 13  1  6  0  0  0
  2  3  1  0  0  0  0
  2  1  1  0  0  0  0
  3  4  2  0  0  0  0
  5 14  1  0  0  0  0
  5  3  1  0  0  0  0
  6  7  1  0  0  0  0
  6  5  1  0  0  0  0
  7  9  1  1  0  0  0
  7  2  1  0  0  0  0
  8 19  1  0  0  0  0
  8  7  1  0  0  0  0
  8  9  1  0  0  0  0
 10  1  1  0  0  0  0
 15  5  1  0  0  0  0
 16  6  1  0  0  0  0
 17  6  1  0  0  0  0
 18  8  1  0  0  0  0
M TOR 0 0 1 2 3
M TOR 1 0 1 2 4
M TOR 2 0 1 6 5
M TOR 3 0 1 6 7
M TOR 4 0 1 6 8
M TOR 5 1 2 4 5
M TOR 6 1 2 4 13
M TOR 7 1 2 4 14
M TOR 8 1 6 5 4
M TOR 9 1 6 5 15
M TOR 10 1 6 5 16
M TOR 11 1 6 7 8
M TOR 12 1 6 7 17
M TOR 13 1 6 7 18
M TOR 14 2 1 0 9
M TOR 15 2 1 0 10
M TOR 16 2 1 0 11
M TOR 17 2 1 6 5
M TOR 18 2 1 6 7
M TOR 19 2 1 6 8
M TOR 20 2 4 5 6
M TOR 21 2 4 5 15
M TOR 22 2 4 5 16
M TOR 23 3 2 1 6
M TOR 24 3 2 1 12
M TOR 25 3 2 4 5
M TOR 26 3 2 4 13
M TOR 27 3 2 4 14
M TOR 28 4 2 1 6
M TOR 29 4 2 1 12
M TOR 30 4 5 6 7
M TOR 31 4 5 6 8
M TOR 32 5 6 1 12
M TOR 33 5 6 7 8
M TOR 34 5 6 7 17
M TOR 35 5 6 7 18
M TOR 36 6 1 0 9
M TOR 37 6 1 0 10
M TOR 38 6 1 0 11
M TOR 39 6 5 4 13
M TOR 40 6 5 4 14
M TOR 41 6 8 7 17
M TOR 42 6 8 7 18
M TOR 43 7 6 1 12
M TOR 44 7 6 5 15
M TOR 45 7 6 5 16
M TOR 46 8 6 1 12
M TOR 47 8 6 5 15
M TOR 48 8 6 5 16
M  END
$$$$
