gdb 194	2.5193364	2.1958226	2.0873727	2.0522	71.95	-0.24676	0.08292	0.32968	828.18	0.162655	-422.593	-422.587184	-422.58624	-422.622698	25.791
 OpenBabel02181911403D

 19 21  0  0  1  0  0  0  0  0999 V2000
    0.3392    1.7193   -1.1395 C   0  0  0  0  0  0  0  0  0  0  0  0
   -0.7768    0.6671   -1.2358 C   0  0  1  0  0  0  0  0  0  0  0  0
   -1.3680    1.0141   -2.6137 C   0  0  0  0  0  0  0  0  0  0  0  0
   -0.0747    0.9113   -3.4375 C   0  0  2  0  0  0  0  0  0  0  0  0
    0.1619   -0.5015   -3.5798 O   0  0  0  0  0  0  0  0  0  0  0  0
    0.7249   -0.8489   -2.3296 C   0  0  1  0  0  0  0  0  0  0  0  0
    1.8897    0.1421   -2.2347 C   0  0  0  0  0  0  0  0  0  0  0  0
    1.0764    1.4305   -2.4684 C   0  0  2  0  0  0  0  0  0  0  0  0
   -0.2095   -0.6597   -1.2726 O   0  0  0  0  0  0  0  0  0  0  0  0
   -0.0942    2.7241   -1.1033 H   0  0  0  0  0  0  0  0  0  0  0  0
    0.9800    1.5904   -0.2644 H   0  0  0  0  0  0  0  0  0  0  0  0
   -1.4865    0.6647   -0.4070 H   0  0  0  0  0  0  0  0  0  0  0  0
   -2.1140    0.3023   -2.9693 H   0  0  0  0  0  0  0  0  0  0  0  0
   -1.7975    2.0212   -2.6043 H   0  0  0  0  0  0  0  0  0  0  0  0
   -0.0937    1.3625   -4.4297 H   0  0  0  0  0  0  0  0  0  0  0  0
    0.9746   -1.9103   -2.3358 H   0  0  0  0  0  0  0  0  0  0  0  0
    2.4067    0.1286   -1.2734 H   0  0  0  0  0  0  0  0  0  0  0  0
    2.6050   -0.0661   -3.0344 H   0  0  0  0  0  0  0  0  0  0  0  0
    1.6484    2.2668   -2.8691 H   0  0  0  0  0  0  0  0  0  0  0  0
  1 10  1  0  0  0  0
  1 11  1  0  0  0  0
  2  1  1  0  0  0  0
  2 12  1  1  0  0  0
  3 14  1  0  0  0  0
  3  2  1  0  0  0  0
  4 15  1  6  0  0  0
  4  3  1  0  0  0  0
  4  8  1  0  0  0  0
  5  4  1  0  0  0  0
  5  6  1  0  0  0  0
  6 16  1  6  0  0  0
  6  7  1  0  0  0  0
  6  9  1  0  0  0  0
  7 17  1  0  0  0  0
  8 19  1  6  0  0  0
  8  7  1  0  0  0  0
  8  1  1  0  0  0  0
  9  2  1  0  0  0  0
 13  3  1  0  0  0  0
 18  7  1  0  0  0  0
M TOR 0 0 1 2 3
M TOR 1 0 1 2 12
M TOR 2 0 1 2 13
M TOR 3 0 1 8 5
M TOR 4 0 7 3 2
M TOR 5 0 7 3 4
M TOR 6 0 7 3 14
M TOR 7 0 7 6 5
M TOR 8 0 7 6 16
M TOR 9 0 7 6 17
M TOR 10 1 0 7 3
M TOR 11 1 0 7 6
M TOR 12 1 0 7 18
M TOR 13 1 2 3 4
M TOR 14 1 2 3 7
M TOR 15 1 2 3 14
M TOR 16 1 8 5 4
M TOR 17 1 8 5 6
M TOR 18 1 8 5 15
M TOR 19 2 1 0 7
M TOR 20 2 1 0 9
M TOR 21 2 1 0 10
M TOR 22 2 1 8 5
M TOR 23 2 3 4 5
M TOR 24 2 3 7 6
M TOR 25 2 3 7 18
M TOR 26 3 2 1 8
M TOR 27 3 2 1 11
M TOR 28 3 4 5 6
M TOR 29 3 4 5 8
M TOR 30 3 4 5 15
M TOR 31 3 7 0 9
M TOR 32 3 7 0 10
M TOR 33 3 7 6 5
M TOR 34 3 7 6 16
M TOR 35 3 7 6 17
M TOR 36 4 3 2 12
M TOR 37 4 3 2 13
M TOR 38 4 3 7 6
M TOR 39 4 3 7 18
M TOR 40 4 5 6 7
M TOR 41 4 5 6 16
M TOR 42 4 5 6 17
M TOR 43 5 4 3 7
M TOR 44 5 4 3 14
M TOR 45 5 6 7 18
M TOR 46 5 8 1 11
M TOR 47 6 7 0 9
M TOR 48 6 7 0 10
M TOR 49 6 7 3 14
M TOR 50 7 0 1 8
M TOR 51 7 0 1 11
M TOR 52 7 3 2 12
M TOR 53 7 3 2 13
M TOR 54 7 6 5 8
M TOR 55 7 6 5 15
M TOR 56 8 1 0 9
M TOR 57 8 1 0 10
M TOR 58 8 1 2 12
M TOR 59 8 1 2 13
M TOR 60 8 5 6 16
M TOR 61 8 5 6 17
M  END
$$$$
