
     RDKit          3D

 19 19  0  0  0  0  0  0  0  0999 V2000
    1.1327   -0.1457   -1.1199 C   0  0  0  0  0  0  0  0  0  0  0  0
    0.9230    0.2154    0.3539 C   0  0  0  0  0  0  0  0  0  0  0  0
    1.3218    1.6936    0.6614 C   0  0  0  0  0  0  0  0  0  0  0  0
    0.3487    2.4158    1.4145 O   0  0  0  0  0  0  0  0  0  0  0  0
    2.6280    1.5612    1.4028 C   0  0  0  0  0  0  0  0  0  0  0  0
    2.8843    0.3014    1.7544 C   0  0  0  0  0  0  0  0  0  0  0  0
    1.8178   -0.6649    1.2812 C   0  0  0  0  0  0  0  0  0  0  0  0
    1.0484   -1.2151    2.4723 C   0  0  0  0  0  0  0  0  0  0  0  0
    1.0700   -2.3558    2.8493 O   0  0  0  0  0  0  0  0  0  0  0  0
    0.8591   -1.1867   -1.3170 H   0  0  0  0  0  0  0  0  0  0  0  0
    0.5223    0.4927   -1.7666 H   0  0  0  0  0  0  0  0  0  0  0  0
    2.1816   -0.0141   -1.4089 H   0  0  0  0  0  0  0  0  0  0  0  0
   -0.1381    0.0996    0.6007 H   0  0  0  0  0  0  0  0  0  0  0  0
    1.4186    2.2680   -0.2666 H   0  0  0  0  0  0  0  0  0  0  0  0
    0.3755    2.0842    2.3192 H   0  0  0  0  0  0  0  0  0  0  0  0
    3.2423    2.4215    1.6441 H   0  0  0  0  0  0  0  0  0  0  0  0
    3.7402   -0.0340    2.3302 H   0  0  0  0  0  0  0  0  0  0  0  0
    2.2459   -1.5236    0.7535 H   0  0  0  0  0  0  0  0  0  0  0  0
    0.4384   -0.4426    3.0022 H   0  0  0  0  0  0  0  0  0  0  0  0
  1  2  1  0
  2  3  1  0
  3  4  1  0
  3  5  1  0
  5  6  2  0
  6  7  1  0
  7  8  1  0
  8  9  2  0
  7  2  1  0
  1 10  1  0
  1 11  1  0
  1 12  1  0
  2 13  1  0
  3 14  1  0
  4 15  1  0
  5 16  1  0
  6 17  1  0
  7 18  1  0
  8 19  1  0
M  END
$$$$
