gdb 1354	2.1701446	1.3382968	1.0298425	1.8041	76.03	-0.25173	0.04653	0.29826	1226.8428	0.153879	-422.513101	-422.503186	-422.502241	-422.548049	37.096
 OpenBabel02181911403D

 19 19  0  0  1  0  0  0  0  0999 V2000
    4.4712    1.4207   -0.0604 O   0  0  0  0  0  0  0  0  0  0  0  0
    3.0646    1.4117    0.1128 C   0  0  1  0  0  0  0  0  0  0  0  0
    2.5599   -0.0519    0.0136 C   0  0  0  0  0  0  0  0  0  0  0  0
    1.1110   -0.2025    0.0148 C   0  0  0  0  0  0  0  0  0  0  0  0
   -0.0857   -0.3208    0.0064 C   0  0  0  0  0  0  0  0  0  0  0  0
    2.7066    2.0855    1.4246 C   0  0  0  0  0  0  0  0  0  0  0  0
    3.3450    1.4727    2.5261 O   0  0  0  0  0  0  0  0  0  0  0  0
    1.3793    2.7527    1.6445 C   0  0  0  0  0  0  0  0  0  0  0  0
    2.6407    3.5804    1.4949 C   0  0  0  0  0  0  0  0  0  0  0  0
    4.8451    1.2422    0.8125 H   0  0  0  0  0  0  0  0  0  0  0  0
    2.6367    1.9853   -0.7163 H   0  0  0  0  0  0  0  0  0  0  0  0
    2.9816   -0.4759   -0.9041 H   0  0  0  0  0  0  0  0  0  0  0  0
    3.0005   -0.6251    0.8403 H   0  0  0  0  0  0  0  0  0  0  0  0
   -1.1418   -0.4308   -0.0016 H   0  0  0  0  0  0  0  0  0  0  0  0
    2.8050    0.7254    2.8069 H   0  0  0  0  0  0  0  0  0  0  0  0
    0.6570    2.7416    0.8371 H   0  0  0  0  0  0  0  0  0  0  0  0
    0.9511    2.6740    2.6379 H   0  0  0  0  0  0  0  0  0  0  0  0
    2.7912    4.1442    0.5812 H   0  0  0  0  0  0  0  0  0  0  0  0
    3.0453    4.0377    2.3900 H   0  0  0  0  0  0  0  0  0  0  0  0
  1  2  1  0  0  0  0
  1 10  1  0  0  0  0
  2 11  1  6  0  0  0
  2  6  1  0  0  0  0
  3  4  1  0  0  0  0
  3  2  1  0  0  0  0
  3 13  1  0  0  0  0
  5  4  3  0  0  0  0
  6  9  1  0  0  0  0
  6  8  1  0  0  0  0
  6  7  1  0  0  0  0
  7 15  1  0  0  0  0
  8 17  1  0  0  0  0
  9  8  1  0  0  0  0
  9 19  1  0  0  0  0
 12  3  1  0  0  0  0
 14  5  1  0  0  0  0
 16  8  1  0  0  0  0
 18  9  1  0  0  0  0
M TOR 0 0 1 2 3
M TOR 1 0 1 2 11
M TOR 2 0 1 2 12
M TOR 3 0 1 5 6
M TOR 4 0 1 5 7
M TOR 5 0 1 5 8
M TOR 6 1 2 3 4
M TOR 7 1 5 6 14
M TOR 8 1 5 7 8
M TOR 9 1 5 7 15
M TOR 10 1 5 7 16
M TOR 11 1 5 8 17
M TOR 12 1 5 8 18
M TOR 13 2 1 0 9
M TOR 14 2 1 5 6
M TOR 15 2 1 5 7
M TOR 16 2 1 5 8
M TOR 17 2 3 4 13
M TOR 18 3 2 1 5
M TOR 19 3 2 1 10
M TOR 20 4 3 2 11
M TOR 21 4 3 2 12
M TOR 22 5 1 0 9
M TOR 23 5 1 2 11
M TOR 24 5 1 2 12
M TOR 25 5 7 8 17
M TOR 26 5 7 8 18
M TOR 27 5 8 7 15
M TOR 28 5 8 7 16
M TOR 29 6 5 1 10
M TOR 30 6 5 7 8
M TOR 31 6 5 7 15
M TOR 32 6 5 7 16
M TOR 33 6 5 8 17
M TOR 34 6 5 8 18
M TOR 35 7 5 1 10
M TOR 36 7 5 6 14
M TOR 37 8 5 1 10
M TOR 38 8 5 6 14
M  END
$$$$
