gdb 2472	2.5544892	1.7986489	1.4125886	2.7783	77.05	-0.24575	0.00341	0.24916	999.2353	0.157597	-422.566803	-422.558775	-422.557831	-422.599284	30.755
 OpenBabel02181911413D

 19 20  0  0  1  0  0  0  0  0999 V2000
    0.0106    1.8187   -0.0799 C   0  0  0  0  0  0  0  0  0  0  0  0
    0.0353    0.2987    0.0623 C   0  0  2  0  0  0  0  0  0  0  0  0
   -1.3116   -0.1566    0.1827 O   0  0  0  0  0  0  0  0  0  0  0  0
   -1.5021   -0.7964    1.4535 C   0  0  0  0  0  0  0  0  0  0  0  0
   -0.2995   -0.3901    2.3540 C   0  0  0  0  0  0  0  0  0  0  0  0
    0.7202   -0.2891    1.2737 C   0  0  1  0  0  3  0  0  0  0  0  0
    1.8202   -0.9308    0.9039 C   0  0  0  0  0  3  0  0  0  0  0  0
    1.9545   -0.8318   -0.5963 C   0  0  0  0  0  0  0  0  0  0  0  0
    0.7270   -0.2536   -1.0476 O   0  0  0  0  0  0  0  0  0  0  0  0
    1.0252    2.2112   -0.1914 H   0  0  0  0  0  0  0  0  0  0  0  0
   -0.5682    2.0820   -0.9694 H   0  0  0  0  0  0  0  0  0  0  0  0
   -0.4610    2.2864    0.7891 H   0  0  0  0  0  0  0  0  0  0  0  0
   -2.4689   -0.4771    1.8541 H   0  0  0  0  0  0  0  0  0  0  0  0
   -1.5192   -1.8874    1.3270 H   0  0  0  0  0  0  0  0  0  0  0  0
   -0.4937    0.5714    2.8427 H   0  0  0  0  0  0  0  0  0  0  0  0
   -0.0765   -1.1340    3.1210 H   0  0  0  0  0  0  0  0  0  0  0  0
    2.4742   -1.5357    1.5194 H   0  0  0  0  0  0  0  0  0  0  0  0
    2.8042   -0.2124   -0.9251 H   0  0  0  0  0  0  0  0  0  0  0  0
    2.0801   -1.8238   -1.0518 H   0  0  0  0  0  0  0  0  0  0  0  0
  1 12  1  0  0  0  0
  2  1  1  1  0  0  0
  2  3  1  0  0  0  0
  2  6  1  0  0  0  0
  3  4  1  0  0  0  0
  4 13  1  0  0  0  0
  4  5  1  0  0  0  0
  5 15  1  0  0  0  0
  5 16  1  0  0  0  0
  6  7  1  6  0  0  0
  6  5  1  0  0  0  0
  7 17  1  0  0  0  0
  8  7  1  0  0  0  0
  9  8  1  0  0  0  0
  9  2  1  0  0  0  0
 10  1  1  0  0  0  0
 11  1  1  0  0  0  0
 14  4  1  0  0  0  0
 18  8  1  0  0  0  0
 19  8  1  0  0  0  0
M TOR 0 0 1 2 3
M TOR 1 0 1 5 4
M TOR 2 0 1 5 6
M TOR 3 0 1 8 7
M TOR 4 1 2 3 4
M TOR 5 1 2 3 12
M TOR 6 1 2 3 13
M TOR 7 1 5 4 3
M TOR 8 1 5 4 14
M TOR 9 1 5 4 15
M TOR 10 1 5 6 7
M TOR 11 1 5 6 16
M TOR 12 1 8 7 6
M TOR 13 1 8 7 17
M TOR 14 1 8 7 18
M TOR 15 2 1 0 9
M TOR 16 2 1 0 10
M TOR 17 2 1 0 11
M TOR 18 2 1 5 4
M TOR 19 2 1 5 6
M TOR 20 2 1 8 7
M TOR 21 2 3 4 5
M TOR 22 2 3 4 14
M TOR 23 2 3 4 15
M TOR 24 3 2 1 5
M TOR 25 3 2 1 8
M TOR 26 3 4 5 6
M TOR 27 4 5 1 8
M TOR 28 4 5 6 7
M TOR 29 4 5 6 16
M TOR 30 5 1 0 9
M TOR 31 5 1 0 10
M TOR 32 5 1 0 11
M TOR 33 5 1 8 7
M TOR 34 5 4 3 12
M TOR 35 5 4 3 13
M TOR 36 5 6 7 8
M TOR 37 5 6 7 17
M TOR 38 5 6 7 18
M TOR 39 6 5 1 8
M TOR 40 6 5 4 14
M TOR 41 6 5 4 15
M TOR 42 8 1 0 9
M TOR 43 8 1 0 10
M TOR 44 8 1 0 11
M TOR 45 8 7 6 16
M  END
$$$$
