
     RDKit          3D

 19 20  0  0  0  0  0  0  0  0999 V2000
    0.1113   -3.0011   -1.2400 C   0  0  0  0  0  0  0  0  0  0  0  0
   -1.0610   -2.4031   -0.5095 C   0  0  0  0  0  0  0  0  0  0  0  0
   -0.9235   -2.2180    0.9001 O   0  0  0  0  0  0  0  0  0  0  0  0
   -1.0177   -1.0550    0.0998 C   0  0  0  0  0  0  0  0  0  0  0  0
   -2.0949    0.0383    0.1982 C   0  0  0  0  0  0  0  0  0  0  0  0
   -1.0068    1.1233   -0.1088 C   0  0  0  0  0  0  0  0  0  0  0  0
   -1.1105    1.8802   -1.4317 C   0  0  0  0  0  0  0  0  0  0  0  0
    0.0618    0.0039   -0.0712 C   0  0  0  0  0  0  0  0  0  0  0  0
    1.2571   -0.0139   -0.1517 O   0  0  0  0  0  0  0  0  0  0  0  0
    1.0417   -2.5239   -0.9256 H   0  0  0  0  0  0  0  0  0  0  0  0
    0.1752   -4.0752   -1.0369 H   0  0  0  0  0  0  0  0  0  0  0  0
   -0.0071   -2.8697   -2.3207 H   0  0  0  0  0  0  0  0  0  0  0  0
   -2.0504   -2.7583   -0.8057 H   0  0  0  0  0  0  0  0  0  0  0  0
   -2.8994   -0.0332   -0.5376 H   0  0  0  0  0  0  0  0  0  0  0  0
   -2.5287    0.1173    1.1972 H   0  0  0  0  0  0  0  0  0  0  0  0
   -0.8606    1.8263    0.7184 H   0  0  0  0  0  0  0  0  0  0  0  0
   -1.2694    1.1938   -2.2705 H   0  0  0  0  0  0  0  0  0  0  0  0
   -1.9460    2.5867   -1.4133 H   0  0  0  0  0  0  0  0  0  0  0  0
   -0.1915    2.4408   -1.6262 H   0  0  0  0  0  0  0  0  0  0  0  0
  1  2  1  0
  2  3  1  0
  3  4  1  0
  4  5  1  0
  5  6  1  0
  6  7  1  0
  6  8  1  0
  8  9  2  0
  4  2  1  0
  8  4  1  0
  1 10  1  0
  1 11  1  0
  1 12  1  0
  2 13  1  0
  5 14  1  0
  5 15  1  0
  6 16  1  0
  7 17  1  0
  7 18  1  0
  7 19  1  0
M  END
$$$$
