
     RDKit          3D

 19 19  0  0  0  0  0  0  0  0999 V2000
   -1.2033    0.8607   -1.0500 C   0  0  0  0  0  0  0  0  0  0  0  0
   -1.0544   -0.2776   -0.0327 C   0  0  0  0  0  0  0  0  0  0  0  0
   -2.0379   -1.4534   -0.2699 C   0  0  0  0  0  0  0  0  0  0  0  0
   -1.2740   -2.7445    0.1192 C   0  0  0  0  0  0  0  0  0  0  0  0
   -1.5964   -3.8859   -0.6584 O   0  0  0  0  0  0  0  0  0  0  0  0
    0.1686   -2.3138    0.0402 C   0  0  0  0  0  0  0  0  0  0  0  0
    0.2974   -0.9822   -0.0418 C   0  0  0  0  0  0  0  0  0  0  0  0
    1.6010   -0.2861   -0.0625 C   0  0  0  0  0  0  0  0  0  0  0  0
    2.6743   -0.8439   -0.1219 O   0  0  0  0  0  0  0  0  0  0  0  0
   -0.9981    0.5059   -2.0659 H   0  0  0  0  0  0  0  0  0  0  0  0
   -2.2229    1.2592   -1.0327 H   0  0  0  0  0  0  0  0  0  0  0  0
   -0.5229    1.6917   -0.8394 H   0  0  0  0  0  0  0  0  0  0  0  0
   -1.2255    0.1400    0.9705 H   0  0  0  0  0  0  0  0  0  0  0  0
   -2.9844   -1.3406    0.2637 H   0  0  0  0  0  0  0  0  0  0  0  0
   -2.2748   -1.5146   -1.3400 H   0  0  0  0  0  0  0  0  0  0  0  0
   -1.5118   -3.0472    1.1481 H   0  0  0  0  0  0  0  0  0  0  0  0
   -1.3422   -3.6997   -1.5694 H   0  0  0  0  0  0  0  0  0  0  0  0
    0.9962   -3.0127    0.0842 H   0  0  0  0  0  0  0  0  0  0  0  0
    1.5466    0.8237   -0.0128 H   0  0  0  0  0  0  0  0  0  0  0  0
  1  2  1  0
  2  3  1  0
  3  4  1  0
  4  5  1  0
  4  6  1  0
  6  7  2  0
  7  8  1  0
  8  9  2  0
  7  2  1  0
  1 10  1  0
  1 11  1  0
  1 12  1  0
  2 13  1  0
  3 14  1  0
  3 15  1  0
  4 16  1  0
  5 17  1  0
  6 18  1  0
  8 19  1  0
M  END
$$$$
