gdb 2649	2.464101	1.4108127	1.117569	2.2442	75.88	-0.2417	0.07614	0.31784	1157.14	0.155218	-422.495333	-422.486533	-422.485589	-422.528542	33.22
 OpenBabel02181911413D

 19 21  0  0  1  0  0  0  0  0999 V2000
    0.6501    0.9759   -0.0112 C   0  0  0  0  0  0  0  0  0  0  0  0
    0.8523   -0.5168   -0.1478 C   0  0  2  0  0  0  0  0  0  0  0  0
    1.9961   -1.2170    0.5557 C   0  0  1  0  0  0  0  0  0  0  0  0
    1.8253   -2.5159    1.0502 O   0  0  0  0  0  0  0  0  0  0  0  0
    2.0145   -1.0767   -0.9317 C   0  0  2  0  0  0  0  0  0  0  0  0
    3.0929   -0.3685   -1.7936 C   0  0  0  0  0  0  0  0  0  0  0  0
    3.0209   -1.5828   -2.7410 C   0  0  2  0  0  0  0  0  0  0  0  0
    1.6708   -1.6936   -3.2008 O   0  0  0  0  0  0  0  0  0  0  0  0
    1.9969   -2.2356   -1.9090 C   0  0  2  0  0  0  0  0  0  0  0  0
    0.0576    1.2188    0.8780 H   0  0  0  0  0  0  0  0  0  0  0  0
    1.6077    1.4996    0.0750 H   0  0  0  0  0  0  0  0  0  0  0  0
    0.1296    1.3858   -0.8833 H   0  0  0  0  0  0  0  0  0  0  0  0
   -0.0589   -1.1076   -0.2169 H   0  0  0  0  0  0  0  0  0  0  0  0
    2.6872   -0.5936    1.1272 H   0  0  0  0  0  0  0  0  0  0  0  0
    1.2486   -2.4676    1.8200 H   0  0  0  0  0  0  0  0  0  0  0  0
    2.8204    0.5866   -2.2501 H   0  0  0  0  0  0  0  0  0  0  0  0
    4.0534   -0.2747   -1.2793 H   0  0  0  0  0  0  0  0  0  0  0  0
    3.7994   -2.0028   -3.3668 H   0  0  0  0  0  0  0  0  0  0  0  0
    1.7746   -3.2785   -1.7248 H   0  0  0  0  0  0  0  0  0  0  0  0
  1 11  1  0  0  0  0
  1 10  1  0  0  0  0
  2 13  1  6  0  0  0
  2  1  1  0  0  0  0
  2  3  1  0  0  0  0
  3  4  1  0  0  0  0
  3 14  1  1  0  0  0
  4 15  1  0  0  0  0
  5  6  1  6  0  0  0
  5  2  1  0  0  0  0
  5  3  1  0  0  0  0
  6 17  1  0  0  0  0
  7 18  1  6  0  0  0
  7  9  1  0  0  0  0
  7  6  1  0  0  0  0
  8  7  1  0  0  0  0
  8  9  1  0  0  0  0
  9 19  1  1  0  0  0
  9  5  1  0  0  0  0
 12  1  1  0  0  0  0
 16  6  1  0  0  0  0
M TOR 0 0 1 2 3
M TOR 1 0 1 2 4
M TOR 2 0 1 2 13
M TOR 3 0 1 4 5
M TOR 4 0 1 4 8
M TOR 5 1 2 3 14
M TOR 6 1 2 4 5
M TOR 7 1 2 4 8
M TOR 8 1 4 2 3
M TOR 9 1 4 2 13
M TOR 10 1 4 5 6
M TOR 11 1 4 5 15
M TOR 12 1 4 5 16
M TOR 13 1 4 8 6
M TOR 14 1 4 8 7
M TOR 15 1 4 8 18
M TOR 16 2 1 0 9
M TOR 17 2 1 0 10
M TOR 18 2 1 0 11
M TOR 19 2 4 1 12
M TOR 20 2 4 5 6
M TOR 21 2 4 5 15
M TOR 22 2 4 5 16
M TOR 23 2 4 8 6
M TOR 24 2 4 8 7
M TOR 25 2 4 8 18
M TOR 26 3 2 1 12
M TOR 27 3 2 4 5
M TOR 28 3 2 4 8
M TOR 29 4 1 0 9
M TOR 30 4 1 0 10
M TOR 31 4 1 0 11
M TOR 32 4 2 3 14
M TOR 33 4 5 6 7
M TOR 34 4 5 6 8
M TOR 35 4 5 6 17
M TOR 36 4 8 6 7
M TOR 37 4 8 6 17
M TOR 38 5 4 1 12
M TOR 39 5 4 2 13
M TOR 40 5 4 8 7
M TOR 41 5 4 8 18
M TOR 42 5 6 7 8
M TOR 43 5 6 8 18
M TOR 44 6 7 8 18
M TOR 45 7 6 5 15
M TOR 46 7 6 5 16
M TOR 47 7 8 6 17
M TOR 48 8 4 1 12
M TOR 49 8 4 2 13
M TOR 50 8 4 5 15
M TOR 51 8 4 5 16
M TOR 52 8 6 5 15
M TOR 53 8 6 5 16
M  END
$$$$
