
     RDKit          3D

 19 21  0  0  0  0  0  0  0  0999 V2000
   -0.7788    0.3867   -0.1690 O   0  0  0  0  0  0  0  0  0  0  0  0
   -1.7461    0.0297    0.7838 C   0  0  0  0  0  0  0  0  0  0  0  0
   -2.8699    0.9973    1.0893 C   0  0  0  0  0  0  0  0  0  0  0  0
   -3.1090   -0.2153    0.2340 C   0  0  0  0  0  0  0  0  0  0  0  0
   -4.1461   -1.3372    0.4534 C   0  0  0  0  0  0  0  0  0  0  0  0
   -4.5210   -1.2282   -1.0360 C   0  0  0  0  0  0  0  0  0  0  0  0
   -3.2939   -1.4834   -1.8864 C   0  0  0  0  0  0  0  0  0  0  0  0
   -3.4745   -0.1393   -1.2358 C   0  0  0  0  0  0  0  0  0  0  0  0
   -3.5735    1.0380   -1.9509 O   0  0  0  0  0  0  0  0  0  0  0  0
   -0.1958    1.0401    0.2321 H   0  0  0  0  0  0  0  0  0  0  0  0
   -1.3833   -0.6015    1.5957 H   0  0  0  0  0  0  0  0  0  0  0  0
   -3.2741    1.0197    2.0969 H   0  0  0  0  0  0  0  0  0  0  0  0
   -2.8579    1.9521    0.5721 H   0  0  0  0  0  0  0  0  0  0  0  0
   -3.7583   -2.3103    0.7741 H   0  0  0  0  0  0  0  0  0  0  0  0
   -4.9502   -1.0315    1.1277 H   0  0  0  0  0  0  0  0  0  0  0  0
   -5.5221   -1.3020   -1.4406 H   0  0  0  0  0  0  0  0  0  0  0  0
   -2.5215   -2.1758   -1.5590 H   0  0  0  0  0  0  0  0  0  0  0  0
   -3.4817   -1.4778   -2.9557 H   0  0  0  0  0  0  0  0  0  0  0  0
   -2.6879    1.2470   -2.2712 H   0  0  0  0  0  0  0  0  0  0  0  0
  1  2  1  0
  2  3  1  0
  3  4  1  0
  4  5  1  0
  5  6  1  0
  6  7  1  0
  7  8  1  0
  8  9  1  0
  4  2  1  0
  8  4  1  0
  8  6  1  0
  1 10  1  0
  2 11  1  0
  3 12  1  0
  3 13  1  0
  5 14  1  0
  5 15  1  0
  6 16  1  0
  7 17  1  0
  7 18  1  0
  9 19  1  0
M  END
$$$$
