gdb 886	2.6571217	1.3145896	1.0672383	3.338	77.97	-0.24044	-0.03213	0.20831	1175.7997	0.157437	-422.558143	-422.549478	-422.548534	-422.592713	31.499
 OpenBabel02181911403D

 19 19  0  0  1  0  0  0  0  0999 V2000
    1.3468   -0.2386    0.0446 O   0  0  0  0  0  0  0  0  0  0  0  0
    0.1643   -0.0181    0.0782 C   0  0  0  0  0  0  0  0  0  0  0  0
   -0.5359    0.7325    1.2105 C   0  0  1  0  0  0  0  0  0  0  0  0
   -1.2106    2.0266    0.7069 C   0  0  0  0  0  0  0  0  0  0  0  0
   -2.0507    1.8970   -0.4194 O   0  0  0  0  0  0  0  0  0  0  0  0
   -3.1097    0.9509   -0.3753 C   0  0  0  0  0  0  0  0  0  0  0  0
   -3.6913    0.6332    1.0046 C   0  0  0  0  0  0  0  0  0  0  0  0
   -2.8061   -0.2127    1.8889 C   0  0  0  0  0  0  0  0  0  0  0  0
   -1.4735   -0.1910    1.9558 C   0  0  0  0  0  0  0  0  0  0  0  0
   -0.5110   -0.3734   -0.7296 H   0  0  0  0  0  0  0  0  0  0  0  0
    0.2642    1.0348    1.8974 H   0  0  0  0  0  0  0  0  0  0  0  0
   -1.7450    2.4779    1.5563 H   0  0  0  0  0  0  0  0  0  0  0  0
   -0.4367    2.7347    0.3948 H   0  0  0  0  0  0  0  0  0  0  0  0
   -3.8958    1.3675   -1.0145 H   0  0  0  0  0  0  0  0  0  0  0  0
   -2.7797    0.0060   -0.8350 H   0  0  0  0  0  0  0  0  0  0  0  0
   -3.9840    1.5622    1.5132 H   0  0  0  0  0  0  0  0  0  0  0  0
   -4.6288    0.0910    0.8337 H   0  0  0  0  0  0  0  0  0  0  0  0
   -3.3282   -0.9174    2.5326 H   0  0  0  0  0  0  0  0  0  0  0  0
   -0.9805   -0.8939    2.6235 H   0  0  0  0  0  0  0  0  0  0  0  0
  1  2  2  0  0  0  0
  2  3  1  0  0  0  0
  3 11  1  1  0  0  0
  3  9  1  0  0  0  0
  4  3  1  0  0  0  0
  4 12  1  0  0  0  0
  5  6  1  0  0  0  0
  5  4  1  0  0  0  0
  6  7  1  0  0  0  0
  7 16  1  0  0  0  0
  7  8  1  0  0  0  0
  8  9  2  0  0  0  0
  8 18  1  0  0  0  0
  9 19  1  0  0  0  0
 10  2  1  0  0  0  0
 13  4  1  0  0  0  0
 14  6  1  0  0  0  0
 15  6  1  0  0  0  0
 17  7  1  0  0  0  0
M TOR 0 0 1 2 3
M TOR 1 0 1 2 8
M TOR 2 0 1 2 10
M TOR 3 1 2 3 4
M TOR 4 1 2 3 11
M TOR 5 1 2 3 12
M TOR 6 1 2 8 7
M TOR 7 1 2 8 18
M TOR 8 2 3 4 5
M TOR 9 2 8 7 6
M TOR 10 2 8 7 17
M TOR 11 3 2 1 9
M TOR 12 3 2 8 7
M TOR 13 3 2 8 18
M TOR 14 3 4 5 6
M TOR 15 3 4 5 13
M TOR 16 3 4 5 14
M TOR 17 4 3 2 8
M TOR 18 4 3 2 10
M TOR 19 4 5 6 7
M TOR 20 4 5 6 15
M TOR 21 4 5 6 16
M TOR 22 5 4 3 11
M TOR 23 5 4 3 12
M TOR 24 5 6 7 8
M TOR 25 5 6 7 17
M TOR 26 6 7 8 18
M TOR 27 7 6 5 13
M TOR 28 7 6 5 14
M TOR 29 7 8 2 10
M TOR 30 8 2 1 9
M TOR 31 8 2 3 11
M TOR 32 8 2 3 12
M TOR 33 8 7 6 15
M TOR 34 8 7 6 16
M  END
$$$$
