
     RDKit          3D

 19 20  0  0  0  0  0  0  0  0999 V2000
   -0.7840    4.0011   -1.0206 C   0  0  0  0  0  0  0  0  0  0  0  0
    0.1992    2.9584   -0.6039 C   0  0  0  0  0  0  0  0  0  0  0  0
    1.6946    3.0410   -0.6369 C   0  0  0  0  0  0  0  0  0  0  0  0
    0.9877    1.8770   -1.3240 C   0  0  0  0  0  0  0  0  0  0  0  0
    1.1616    1.5065   -2.7661 C   0  0  0  0  0  0  0  0  0  0  0  0
    0.4199    0.9450   -0.2395 C   0  0  0  0  0  0  0  0  0  0  0  0
   -0.2035    2.0530    0.4456 O   0  0  0  0  0  0  0  0  0  0  0  0
    1.4160    0.1722    0.5960 C   0  0  0  0  0  0  0  0  0  0  0  0
    1.7842   -0.9402    0.3153 O   0  0  0  0  0  0  0  0  0  0  0  0
   -0.9608    4.7077   -0.2017 H   0  0  0  0  0  0  0  0  0  0  0  0
   -0.4044    4.5671   -1.8760 H   0  0  0  0  0  0  0  0  0  0  0  0
   -1.7432    3.5508   -1.2940 H   0  0  0  0  0  0  0  0  0  0  0  0
    2.1037    3.7651   -1.3356 H   0  0  0  0  0  0  0  0  0  0  0  0
    2.2723    2.9184    0.2740 H   0  0  0  0  0  0  0  0  0  0  0  0
    2.0264    0.8473   -2.9031 H   0  0  0  0  0  0  0  0  0  0  0  0
    0.2799    0.9850   -3.1545 H   0  0  0  0  0  0  0  0  0  0  0  0
    1.3257    2.3967   -3.3818 H   0  0  0  0  0  0  0  0  0  0  0  0
   -0.3291    0.2532   -0.6442 H   0  0  0  0  0  0  0  0  0  0  0  0
    1.8081    0.7213    1.4801 H   0  0  0  0  0  0  0  0  0  0  0  0
  1  2  1  0
  2  3  1  0
  3  4  1  0
  4  5  1  0
  4  6  1  0
  6  7  1  0
  6  8  1  0
  8  9  2  0
  4  2  1  0
  7  2  1  0
  1 10  1  0
  1 11  1  0
  1 12  1  0
  3 13  1  0
  3 14  1  0
  5 15  1  0
  5 16  1  0
  5 17  1  0
  6 18  1  0
  8 19  1  0
M  END
$$$$
