
     RDKit          3D

 19 20  0  0  0  0  0  0  0  0999 V2000
   -1.1742   -1.5375   -0.8893 C   0  0  0  0  0  0  0  0  0  0  0  0
   -1.4414   -0.0374   -1.0919 C   0  0  0  0  0  0  0  0  0  0  0  0
   -0.7464    0.5004   -2.3547 C   0  0  0  0  0  0  0  0  0  0  0  0
   -0.9972    0.7441    0.1086 C   0  0  0  0  0  0  0  0  0  0  0  0
   -1.4878    2.0976    0.2927 O   0  0  0  0  0  0  0  0  0  0  0  0
   -1.6511    1.1834    1.3730 C   0  0  0  0  0  0  0  0  0  0  0  0
   -0.3396    1.2357    2.1668 C   0  0  0  0  0  0  0  0  0  0  0  0
    0.3448    0.7455    0.8520 C   0  0  0  0  0  0  0  0  0  0  0  0
    1.4429    0.3553    0.5856 O   0  0  0  0  0  0  0  0  0  0  0  0
   -1.6971   -1.9223   -0.0078 H   0  0  0  0  0  0  0  0  0  0  0  0
   -1.5165   -2.1058   -1.7593 H   0  0  0  0  0  0  0  0  0  0  0  0
   -0.1042   -1.7286   -0.7612 H   0  0  0  0  0  0  0  0  0  0  0  0
   -2.5224    0.1235   -1.1928 H   0  0  0  0  0  0  0  0  0  0  0  0
   -1.0903   -0.0403   -3.2418 H   0  0  0  0  0  0  0  0  0  0  0  0
   -0.9609    1.5634   -2.4958 H   0  0  0  0  0  0  0  0  0  0  0  0
    0.3386    0.3771   -2.2791 H   0  0  0  0  0  0  0  0  0  0  0  0
   -2.6559    0.9704    1.7170 H   0  0  0  0  0  0  0  0  0  0  0  0
   -0.0591    2.2196    2.5471 H   0  0  0  0  0  0  0  0  0  0  0  0
   -0.2359    0.4826    2.9542 H   0  0  0  0  0  0  0  0  0  0  0  0
  1  2  1  0
  2  3  1  0
  2  4  1  0
  4  5  1  0
  5  6  1  0
  6  7  1  0
  7  8  1  0
  8  9  2  0
  6  4  1  0
  8  4  1  0
  1 10  1  0
  1 11  1  0
  1 12  1  0
  2 13  1  0
  3 14  1  0
  3 15  1  0
  3 16  1  0
  6 17  1  0
  7 18  1  0
  7 19  1  0
M  END
$$$$
