
     RDKit          3D

 19 20  0  0  0  0  0  0  0  0999 V2000
   -3.9594    2.8543    1.7438 O   0  0  0  0  0  0  0  0  0  0  0  0
   -2.8772    3.1731    0.8945 C   0  0  0  0  0  0  0  0  0  0  0  0
   -2.4841    1.9139    0.0714 C   0  0  0  0  0  0  0  0  0  0  0  0
   -1.1072    1.9038    0.7598 C   0  0  0  0  0  0  0  0  0  0  0  0
   -0.3562    0.6680    1.1936 C   0  0  0  0  0  0  0  0  0  0  0  0
    0.2941   -0.0374    0.0196 C   0  0  0  0  0  0  0  0  0  0  0  0
    1.4602   -0.3290   -0.0467 O   0  0  0  0  0  0  0  0  0  0  0  0
   -0.4237    3.2233    0.5105 C   0  0  0  0  0  0  0  0  0  0  0  0
   -1.4941    3.1441    1.5662 C   0  0  0  0  0  0  0  0  0  0  0  0
   -4.1118    3.6064    2.3255 H   0  0  0  0  0  0  0  0  0  0  0  0
   -3.0873    4.0823    0.3115 H   0  0  0  0  0  0  0  0  0  0  0  0
   -3.1198    1.0803    0.3786 H   0  0  0  0  0  0  0  0  0  0  0  0
   -2.4946    1.9982   -1.0197 H   0  0  0  0  0  0  0  0  0  0  0  0
    0.4244    0.9093    1.9215 H   0  0  0  0  0  0  0  0  0  0  0  0
   -1.0547   -0.0395    1.6650 H   0  0  0  0  0  0  0  0  0  0  0  0
   -0.4024   -0.2746   -0.8182 H   0  0  0  0  0  0  0  0  0  0  0  0
    0.5929    3.3012    0.8836 H   0  0  0  0  0  0  0  0  0  0  0  0
   -0.6003    3.7741   -0.4116 H   0  0  0  0  0  0  0  0  0  0  0  0
   -1.3016    3.3722    2.6089 H   0  0  0  0  0  0  0  0  0  0  0  0
  1  2  1  0
  2  3  1  0
  3  4  1  0
  4  5  1  0
  5  6  1  0
  6  7  2  0
  4  8  1  0
  8  9  1  0
  9  2  1  0
  9  4  1  0
  1 10  1  0
  2 11  1  0
  3 12  1  0
  3 13  1  0
  5 14  1  0
  5 15  1  0
  6 16  1  0
  8 17  1  0
  8 18  1  0
  9 19  1  0
M  END
$$$$
