
     RDKit          3D

 19 20  0  0  0  0  0  0  0  0999 V2000
    2.4875   -0.7685    0.7945 C   0  0  0  0  0  0  0  0  0  0  0  0
    1.9433    0.0724   -0.3449 C   0  0  0  0  0  0  0  0  0  0  0  0
    2.0318    1.4495    0.0390 O   0  0  0  0  0  0  0  0  0  0  0  0
    1.5056    2.3161   -0.8698 C   0  0  0  0  0  0  0  0  0  0  0  0
    1.3366    3.8475   -0.6317 C   0  0  0  0  0  0  0  0  0  0  0  0
    0.8016    3.6451   -2.0924 C   0  0  0  0  0  0  0  0  0  0  0  0
    2.0306    2.7078   -2.3165 C   0  0  0  0  0  0  0  0  0  0  0  0
    0.1049    2.3964   -1.5235 C   0  0  0  0  0  0  0  0  0  0  0  0
   -0.9330    1.8106   -1.5740 O   0  0  0  0  0  0  0  0  0  0  0  0
    2.4456   -1.8300    0.5332 H   0  0  0  0  0  0  0  0  0  0  0  0
    3.5272   -0.5034    1.0064 H   0  0  0  0  0  0  0  0  0  0  0  0
    1.9000   -0.6109    1.7032 H   0  0  0  0  0  0  0  0  0  0  0  0
    2.5272   -0.0906   -1.2630 H   0  0  0  0  0  0  0  0  0  0  0  0
    0.8977   -0.1803   -0.5621 H   0  0  0  0  0  0  0  0  0  0  0  0
    0.6250    4.1626    0.1331 H   0  0  0  0  0  0  0  0  0  0  0  0
    2.2785    4.3971   -0.5718 H   0  0  0  0  0  0  0  0  0  0  0  0
    0.4170    4.4013   -2.7675 H   0  0  0  0  0  0  0  0  0  0  0  0
    1.9622    1.9661   -3.1139 H   0  0  0  0  0  0  0  0  0  0  0  0
    2.9949    3.2202   -2.3074 H   0  0  0  0  0  0  0  0  0  0  0  0
  1  2  1  0
  2  3  1  0
  3  4  1  0
  4  5  1  0
  5  6  1  0
  6  7  1  0
  6  8  1  0
  8  9  2  0
  7  4  1  0
  8  4  1  0
  1 10  1  0
  1 11  1  0
  1 12  1  0
  2 13  1  0
  2 14  1  0
  5 15  1  0
  5 16  1  0
  6 17  1  0
  7 18  1  0
  7 19  1  0
M  END
$$$$
