
     RDKit          3D

 19 21  0  0  0  0  0  0  0  0999 V2000
    0.6935    0.8255    0.1345 C   0  0  0  0  0  0  0  0  0  0  0  0
    0.9706   -0.6651    0.2806 C   0  0  0  0  0  0  0  0  0  0  0  0
    2.2351   -1.0420    1.1517 C   0  0  0  0  0  0  0  0  0  0  0  0
    3.0288    0.0378    1.6032 O   0  0  0  0  0  0  0  0  0  0  0  0
    2.8958   -1.6918   -0.0900 C   0  0  0  0  0  0  0  0  0  0  0  0
    2.5953   -3.1884   -0.3422 C   0  0  0  0  0  0  0  0  0  0  0  0
    1.2691   -3.4591    0.1357 O   0  0  0  0  0  0  0  0  0  0  0  0
    1.4124   -2.8561   -1.1573 C   0  0  0  0  0  0  0  0  0  0  0  0
    1.6451   -1.3363   -0.9558 C   0  0  0  0  0  0  0  0  0  0  0  0
    0.3413    1.2613    1.0768 H   0  0  0  0  0  0  0  0  0  0  0  0
    1.5920    1.3717   -0.1659 H   0  0  0  0  0  0  0  0  0  0  0  0
   -0.0834    1.0004   -0.6175 H   0  0  0  0  0  0  0  0  0  0  0  0
    0.0730   -1.1939    0.6112 H   0  0  0  0  0  0  0  0  0  0  0  0
    2.0128   -1.7429    1.9651 H   0  0  0  0  0  0  0  0  0  0  0  0
    2.5650    0.4688    2.3282 H   0  0  0  0  0  0  0  0  0  0  0  0
    3.8938   -1.3412   -0.3485 H   0  0  0  0  0  0  0  0  0  0  0  0
    3.2795   -4.0289   -0.3750 H   0  0  0  0  0  0  0  0  0  0  0  0
    0.9453   -3.3733   -1.9882 H   0  0  0  0  0  0  0  0  0  0  0  0
    1.7397   -0.7531   -1.8724 H   0  0  0  0  0  0  0  0  0  0  0  0
  1  2  1  0
  2  3  1  0
  3  4  1  0
  3  5  1  0
  5  6  1  0
  6  7  1  0
  7  8  1  0
  8  9  1  0
  9  2  1  0
  9  5  1  0
  8  6  1  0
  1 10  1  0
  1 11  1  0
  1 12  1  0
  2 13  1  0
  3 14  1  0
  4 15  1  0
  5 16  1  0
  6 17  1  0
  8 18  1  0
  9 19  1  0
M  END
$$$$
