
     RDKit          3D

 19 18  0  0  0  0  0  0  0  0999 V2000
    1.9948    4.3597   -5.3399 C   0  0  0  0  0  0  0  0  0  0  0  0
    1.4301    3.9077   -3.9921 C   0  0  0  0  0  0  0  0  0  0  0  0
    1.9492    2.5142   -3.5804 C   0  0  0  0  0  0  0  0  0  0  0  0
    1.4281    2.0599   -2.2970 C   0  0  0  0  0  0  0  0  0  0  0  0
    0.9742    1.7330   -1.2282 C   0  0  0  0  0  0  0  0  0  0  0  0
    0.4697    1.2411    0.0482 C   0  0  0  0  0  0  0  0  0  0  0  0
   -0.6218    0.3367   -0.0889 O   0  0  0  0  0  0  0  0  0  0  0  0
    1.6155    0.5277    0.7911 C   0  0  0  0  0  0  0  0  0  0  0  0
    2.2194    0.9921    1.7172 O   0  0  0  0  0  0  0  0  0  0  0  0
    1.7189    3.6645   -6.1407 H   0  0  0  0  0  0  0  0  0  0  0  0
    1.6155    5.3487   -5.6129 H   0  0  0  0  0  0  0  0  0  0  0  0
    3.0885    4.4180   -5.3137 H   0  0  0  0  0  0  0  0  0  0  0  0
    1.6945    4.6279   -3.2102 H   0  0  0  0  0  0  0  0  0  0  0  0
    0.3355    3.8802   -4.0299 H   0  0  0  0  0  0  0  0  0  0  0  0
    1.6887    1.7826   -4.3570 H   0  0  0  0  0  0  0  0  0  0  0  0
    3.0466    2.5299   -3.5394 H   0  0  0  0  0  0  0  0  0  0  0  0
    0.1302    2.0653    0.6846 H   0  0  0  0  0  0  0  0  0  0  0  0
   -0.5227   -0.1170   -0.9326 H   0  0  0  0  0  0  0  0  0  0  0  0
    1.8200   -0.4898    0.3868 H   0  0  0  0  0  0  0  0  0  0  0  0
  1  2  1  0
  2  3  1  0
  3  4  1  0
  4  5  3  0
  5  6  1  0
  6  7  1  0
  6  8  1  0
  8  9  2  0
  1 10  1  0
  1 11  1  0
  1 12  1  0
  2 13  1  0
  2 14  1  0
  3 15  1  0
  3 16  1  0
  6 17  1  0
  7 18  1  0
  8 19  1  0
M  END
$$$$
