
     RDKit          3D

 19 21  0  0  0  0  0  0  0  0999 V2000
   -1.1755   -3.7679    1.8654 C   0  0  0  0  0  0  0  0  0  0  0  0
   -1.2617   -2.2870    2.1149 C   0  0  0  0  0  0  0  0  0  0  0  0
   -0.5440   -2.8034    0.8886 C   0  0  0  0  0  0  0  0  0  0  0  0
    0.9380   -2.6964    0.8183 C   0  0  0  0  0  0  0  0  0  0  0  0
    1.5971   -3.3892   -0.2568 O   0  0  0  0  0  0  0  0  0  0  0  0
    1.6372   -1.9636   -0.2492 C   0  0  0  0  0  0  0  0  0  0  0  0
    2.9764   -1.3276   -0.0256 C   0  0  0  0  0  0  0  0  0  0  0  0
    4.2229   -2.0615   -0.2859 C   0  0  0  0  0  0  0  0  0  0  0  0
    3.7586   -1.8396    1.0491 O   0  0  0  0  0  0  0  0  0  0  0  0
   -0.5126   -4.3523    2.4947 H   0  0  0  0  0  0  0  0  0  0  0  0
   -2.0698   -4.2938    1.5512 H   0  0  0  0  0  0  0  0  0  0  0  0
   -2.2140   -1.7889    1.9727 H   0  0  0  0  0  0  0  0  0  0  0  0
   -0.6588   -1.8699    2.9150 H   0  0  0  0  0  0  0  0  0  0  0  0
   -1.0472   -2.6778   -0.0654 H   0  0  0  0  0  0  0  0  0  0  0  0
    1.4654   -2.7825    1.7689 H   0  0  0  0  0  0  0  0  0  0  0  0
    1.0391   -1.4861   -1.0283 H   0  0  0  0  0  0  0  0  0  0  0  0
    2.9810   -0.2399   -0.1146 H   0  0  0  0  0  0  0  0  0  0  0  0
    4.1546   -3.0911   -0.6279 H   0  0  0  0  0  0  0  0  0  0  0  0
    5.1237   -1.5169   -0.5640 H   0  0  0  0  0  0  0  0  0  0  0  0
  1  2  1  0
  2  3  1  0
  3  4  1  0
  4  5  1  0
  5  6  1  0
  6  7  1  0
  7  8  1  0
  8  9  1  0
  3  1  1  0
  6  4  1  0
  9  7  1  0
  1 10  1  0
  1 11  1  0
  2 12  1  0
  2 13  1  0
  3 14  1  0
  4 15  1  0
  6 16  1  0
  7 17  1  0
  8 18  1  0
  8 19  1  0
M  END
$$$$
