gdb 2611	2.4669577	1.5455329	1.2033262	3.0773	77.74	-0.24879	-0.05427	0.19452000000000003	1097.6016	0.155772	-422.600163	-422.59109	-422.590146	-422.633421	34.389
 OpenBabel02181911413D

 19 19  0  0  1  0  0  0  0  0999 V2000
   -3.0725   -1.0211    1.2503 C   0  0  0  0  0  0  0  0  0  0  0  0
   -2.3699   -0.7023   -0.0848 C   0  0  0  0  0  0  0  0  0  0  0  0
   -3.2348   -1.1702   -1.2650 C   0  0  0  0  0  0  0  0  0  0  0  0
   -2.0688    0.7852   -0.1663 C   0  0  0  0  0  0  0  0  0  0  0  0
   -0.7867    1.1043    0.0632 C   0  0  0  0  0  0  0  0  0  0  0  0
   -0.0358   -0.1352    0.3307 C   0  0  0  0  0  0  0  0  0  0  0  0
    1.0477   -0.2936    0.8509 O   0  0  0  0  0  0  0  0  0  0  0  0
   -0.9318   -1.2972   -0.1131 C   0  0  1  0  0  0  0  0  0  0  0  0
   -0.7263   -2.4442    0.6645 O   0  0  0  0  0  0  0  0  0  0  0  0
   -3.2433   -2.0968    1.3351 H   0  0  0  0  0  0  0  0  0  0  0  0
   -2.4646   -0.7099    2.1037 H   0  0  0  0  0  0  0  0  0  0  0  0
   -4.0370   -0.5062    1.3092 H   0  0  0  0  0  0  0  0  0  0  0  0
   -3.3911   -2.2525   -1.2190 H   0  0  0  0  0  0  0  0  0  0  0  0
   -4.2183   -0.6879   -1.2472 H   0  0  0  0  0  0  0  0  0  0  0  0
   -2.7616   -0.9364   -2.2242 H   0  0  0  0  0  0  0  0  0  0  0  0
   -2.8614    1.5013   -0.3656 H   0  0  0  0  0  0  0  0  0  0  0  0
   -0.3561    2.0956    0.1193 H   0  0  0  0  0  0  0  0  0  0  0  0
   -0.6755   -1.4959   -1.1699 H   0  0  0  0  0  0  0  0  0  0  0  0
    0.1493   -2.3290    1.0644 H   0  0  0  0  0  0  0  0  0  0  0  0
  1 12  1  0  0  0  0
  1 10  1  0  0  0  0
  1 11  1  0  0  0  0
  2  1  1  0  0  0  0
  3 14  1  0  0  0  0
  3 13  1  0  0  0  0
  3  2  1  0  0  0  0
  4  2  1  0  0  0  0
  4  5  2  0  0  0  0
  5 17  1  0  0  0  0
  5  6  1  0  0  0  0
  6  7  2  0  0  0  0
  8 18  1  6  0  0  0
  8  2  1  0  0  0  0
  8  6  1  0  0  0  0
  8  9  1  0  0  0  0
  9 19  1  0  0  0  0
 15  3  1  0  0  0  0
 16  4  1  0  0  0  0
M TOR 0 0 1 2 12
M TOR 1 0 1 2 13
M TOR 2 0 1 2 14
M TOR 3 0 1 3 4
M TOR 4 0 1 3 15
M TOR 5 0 1 7 5
M TOR 6 0 1 7 8
M TOR 7 0 1 7 17
M TOR 8 1 3 4 5
M TOR 9 1 3 4 16
M TOR 10 1 7 5 4
M TOR 11 1 7 5 6
M TOR 12 1 7 8 18
M TOR 13 2 1 0 9
M TOR 14 2 1 0 10
M TOR 15 2 1 0 11
M TOR 16 2 1 3 4
M TOR 17 2 1 3 15
M TOR 18 2 1 7 5
M TOR 19 2 1 7 8
M TOR 20 2 1 7 17
M TOR 21 3 1 0 9
M TOR 22 3 1 0 10
M TOR 23 3 1 0 11
M TOR 24 3 1 2 12
M TOR 25 3 1 2 13
M TOR 26 3 1 2 14
M TOR 27 3 1 7 5
M TOR 28 3 1 7 8
M TOR 29 3 1 7 17
M TOR 30 3 4 5 6
M TOR 31 3 4 5 7
M TOR 32 4 3 1 7
M TOR 33 4 5 7 8
M TOR 34 4 5 7 17
M TOR 35 5 4 3 15
M TOR 36 5 7 8 18
M TOR 37 6 5 4 16
M TOR 38 6 5 7 8
M TOR 39 6 5 7 17
M TOR 40 7 1 0 9
M TOR 41 7 1 0 10
M TOR 42 7 1 0 11
M TOR 43 7 1 2 12
M TOR 44 7 1 2 13
M TOR 45 7 1 2 14
M TOR 46 7 1 3 15
M TOR 47 7 5 4 16
M  END
$$$$
