gdb 3191	2.3254016	1.77789	1.4000746	0.8133	74.63	-0.21407	0.0645	0.27857	1024.7967	0.154899	-422.500519	-422.491738	-422.490794	-422.533209	33.72
 OpenBabel02181911413D

 19 21  0  0  1  0  0  0  0  0999 V2000
    1.0727   -0.7561   -0.7987 C   0  0  0  0  0  0  0  0  0  0  0  0
    1.0728    0.2098    0.3759 C   0  0  2  0  0  0  0  0  0  0  0  0
    1.9712    1.4820    0.3194 C   0  0  2  0  0  0  0  0  0  0  0  0
    3.3086    0.9711    0.0408 O   0  0  0  0  0  0  0  0  0  0  0  0
    3.3008    0.4619    1.3813 C   0  0  1  0  0  0  0  0  0  0  0  0
    4.5573   -0.0501    1.9942 C   0  0  0  0  0  0  0  0  0  0  0  0
    2.2130    1.3749    1.8653 C   0  0  2  0  0  0  0  0  0  0  0  0
    1.8769   -0.0913    1.6485 C   0  0  1  0  0  0  0  0  0  0  0  0
    1.5998   -1.0047    2.6448 O   0  0  0  0  0  0  0  0  0  0  0  0
    0.6176   -1.7128   -0.5185 H   0  0  0  0  0  0  0  0  0  0  0  0
    0.4992   -0.3562   -1.6421 H   0  0  0  0  0  0  0  0  0  0  0  0
    2.0949   -0.9419   -1.1380 H   0  0  0  0  0  0  0  0  0  0  0  0
    0.0580    0.5053    0.6649 H   0  0  0  0  0  0  0  0  0  0  0  0
    1.7104    2.3644   -0.2607 H   0  0  0  0  0  0  0  0  0  0  0  0
    4.3477   -0.4351    2.9964 H   0  0  0  0  0  0  0  0  0  0  0  0
    4.9755   -0.8648    1.3919 H   0  0  0  0  0  0  0  0  0  0  0  0
    5.3138    0.7365    2.0735 H   0  0  0  0  0  0  0  0  0  0  0  0
    2.1034    2.0470    2.7048 H   0  0  0  0  0  0  0  0  0  0  0  0
    1.9540   -1.8617    2.3819 H   0  0  0  0  0  0  0  0  0  0  0  0
  1 10  1  0  0  0  0
  1  2  1  0  0  0  0
  2 13  1  1  0  0  0
  2  8  1  0  0  0  0
  3 14  1  6  0  0  0
  3  2  1  0  0  0  0
  3  7  1  0  0  0  0
  4  3  1  0  0  0  0
  4  5  1  0  0  0  0
  5  8  1  0  0  0  0
  5  7  1  0  0  0  0
  5  6  1  1  0  0  0
  6 17  1  0  0  0  0
  6 15  1  0  0  0  0
  7 18  1  1  0  0  0
  8  7  1  0  0  0  0
  8  9  1  1  0  0  0
 11  1  1  0  0  0  0
 12  1  1  0  0  0  0
 16  6  1  0  0  0  0
 19  9  1  0  0  0  0
M TOR 0 0 1 2 3
M TOR 1 0 1 2 6
M TOR 2 0 1 2 13
M TOR 3 0 1 7 4
M TOR 4 0 1 7 6
M TOR 5 0 1 7 8
M TOR 6 1 2 3 4
M TOR 7 1 2 6 4
M TOR 8 1 2 6 7
M TOR 9 1 2 6 17
M TOR 10 1 7 4 3
M TOR 11 1 7 4 5
M TOR 12 1 7 4 6
M TOR 13 1 7 6 17
M TOR 14 1 7 8 18
M TOR 15 2 1 0 9
M TOR 16 2 1 0 10
M TOR 17 2 1 0 11
M TOR 18 2 1 7 4
M TOR 19 2 1 7 8
M TOR 20 2 3 4 5
M TOR 21 2 3 4 6
M TOR 22 2 3 4 7
M TOR 23 2 6 4 5
M TOR 24 2 6 4 7
M TOR 25 2 6 7 8
M TOR 26 3 2 1 7
M TOR 27 3 2 1 12
M TOR 28 3 2 6 7
M TOR 29 3 2 6 17
M TOR 30 3 4 5 14
M TOR 31 3 4 5 15
M TOR 32 3 4 5 16
M TOR 33 3 4 6 7
M TOR 34 3 4 6 17
M TOR 35 3 4 7 8
M TOR 36 4 3 2 13
M TOR 37 4 6 2 13
M TOR 38 4 6 7 8
M TOR 39 4 7 1 12
M TOR 40 4 7 6 17
M TOR 41 4 7 8 18
M TOR 42 5 4 6 7
M TOR 43 5 4 6 17
M TOR 44 5 4 7 8
M TOR 45 6 2 1 12
M TOR 46 6 4 5 14
M TOR 47 6 4 5 15
M TOR 48 6 4 5 16
M TOR 49 6 7 1 12
M TOR 50 6 7 8 18
M TOR 51 7 1 0 9
M TOR 52 7 1 0 10
M TOR 53 7 1 0 11
M TOR 54 7 1 2 13
M TOR 55 7 4 5 14
M TOR 56 7 4 5 15
M TOR 57 7 4 5 16
M TOR 58 7 6 2 13
M TOR 59 8 7 1 12
M TOR 60 8 7 6 17
M  END
$$$$
