gdb 5756	4.6329407	1.166366	1.0976893	2.5621	74.73	-0.24275	0.09252	0.33527	1142.968	0.158927	-422.518235	-422.51091	-422.509965	-422.550062	29.148
 OpenBabel02181911423D

 19 21  0  0  1  0  0  0  0  0999 V2000
    1.5933    0.6340    0.3296 O   0  0  0  0  0  0  0  0  0  0  0  0
    0.5695   -0.2673    0.7009 C   0  0  0  0  0  0  0  0  0  0  0  0
   -0.3548    0.3542    1.7408 C   0  0  1  0  0  0  0  0  0  0  0  0
   -0.8770    1.5987    1.2094 O   0  0  0  0  0  0  0  0  0  0  0  0
   -2.2767    1.3945    1.2736 C   0  0  1  0  0  0  0  0  0  0  0  0
   -2.6468   -0.0577    0.8542 C   0  0  2  0  0  0  0  0  0  0  0  0
   -3.8152   -0.0302    1.8648 C   0  0  0  0  0  0  0  0  0  0  0  0
   -2.6582    0.6799    2.6022 C   0  0  1  0  0  0  0  0  0  0  0  0
   -1.6571   -0.3830    2.0306 C   0  0  2  0  0  0  0  0  0  0  0  0
    1.1449    1.4597    0.1092 H   0  0  0  0  0  0  0  0  0  0  0  0
   -0.0232   -0.5863   -0.1717 H   0  0  0  0  0  0  0  0  0  0  0  0
    1.0589   -1.1557    1.1156 H   0  0  0  0  0  0  0  0  0  0  0  0
    0.2183    0.5789    2.6501 H   0  0  0  0  0  0  0  0  0  0  0  0
   -2.8170    2.2645    0.9021 H   0  0  0  0  0  0  0  0  0  0  0  0
   -2.6340   -0.4785   -0.1514 H   0  0  0  0  0  0  0  0  0  0  0  0
   -4.6831    0.5811    1.6008 H   0  0  0  0  0  0  0  0  0  0  0  0
   -4.1270   -0.9957    2.2701 H   0  0  0  0  0  0  0  0  0  0  0  0
   -2.6503    1.1068    3.6057 H   0  0  0  0  0  0  0  0  0  0  0  0
   -1.6210   -1.3857    2.4571 H   0  0  0  0  0  0  0  0  0  0  0  0
  1  2  1  0  0  0  0
  2 12  1  0  0  0  0
  2  3  1  0  0  0  0
  3  9  1  0  0  0  0
  3 13  1  1  0  0  0
  4  5  1  0  0  0  0
  4  3  1  0  0  0  0
  5 14  1  6  0  0  0
  5  8  1  0  0  0  0
  6 15  1  6  0  0  0
  6  5  1  0  0  0  0
  6  7  1  0  0  0  0
  6  9  1  0  0  0  0
  7 17  1  0  0  0  0
  7  8  1  0  0  0  0
  8 18  1  1  0  0  0
  9 19  1  1  0  0  0
  9  8  1  0  0  0  0
 10  1  1  0  0  0  0
 11  2  1  0  0  0  0
 16  7  1  0  0  0  0
M TOR 0 0 1 2 3
M TOR 1 0 1 2 8
M TOR 2 0 1 2 12
M TOR 3 1 2 3 4
M TOR 4 1 2 8 5
M TOR 5 1 2 8 7
M TOR 6 1 2 8 18
M TOR 7 2 1 0 9
M TOR 8 2 3 4 5
M TOR 9 2 3 4 7
M TOR 10 2 3 4 13
M TOR 11 2 8 5 4
M TOR 12 2 8 5 6
M TOR 13 2 8 5 14
M TOR 14 2 8 7 4
M TOR 15 2 8 7 6
M TOR 16 2 8 7 17
M TOR 17 3 2 1 10
M TOR 18 3 2 1 11
M TOR 19 3 2 8 5
M TOR 20 3 2 8 7
M TOR 21 3 2 8 18
M TOR 22 3 4 5 6
M TOR 23 3 4 5 8
M TOR 24 3 4 5 14
M TOR 25 3 4 7 6
M TOR 26 3 4 7 8
M TOR 27 3 4 7 17
M TOR 28 4 3 2 8
M TOR 29 4 3 2 12
M TOR 30 4 5 6 7
M TOR 31 4 5 6 15
M TOR 32 4 5 6 16
M TOR 33 4 5 8 7
M TOR 34 4 5 8 18
M TOR 35 4 7 6 15
M TOR 36 4 7 6 16
M TOR 37 4 7 8 18
M TOR 38 5 4 7 17
M TOR 39 5 6 7 8
M TOR 40 5 6 7 17
M TOR 41 5 8 2 12
M TOR 42 5 8 7 17
M TOR 43 6 5 4 13
M TOR 44 6 5 8 18
M TOR 45 6 7 4 13
M TOR 46 6 7 8 18
M TOR 47 7 4 5 14
M TOR 48 7 6 5 14
M TOR 49 7 8 2 12
M TOR 50 7 8 5 14
M TOR 51 8 2 1 10
M TOR 52 8 2 1 11
M TOR 53 8 5 4 13
M TOR 54 8 5 6 15
M TOR 55 8 5 6 16
M TOR 56 8 7 4 13
M TOR 57 8 7 6 15
M TOR 58 8 7 6 16
M  END
$$$$
