gdb 1372	3.983376	0.7645648	0.7262721	2.355	77.7	-0.24314	0.02766	0.2708	1579.9575	0.154807	-422.495135	-422.485261	-422.484317	-422.531318	34.703
 OpenBabel02181911403D

 19 19  0  0  1  0  0  0  0  0999 V2000
   -2.6304    2.5482    0.9273 O   0  0  0  0  0  0  0  0  0  0  0  0
   -2.3619    2.2612   -0.4438 C   0  0  2  0  0  0  0  0  0  0  0  0
   -0.8457    2.4046   -0.6461 C   0  0  0  0  0  0  0  0  0  0  0  0
   -0.0439    1.4427    0.2218 C   0  0  0  0  0  0  0  0  0  0  0  0
    1.4785    1.3797   -0.0379 C   0  0  0  0  0  0  0  0  0  0  0  0
    1.4120   -0.0174   -0.3884 O   0  0  0  0  0  0  0  0  0  0  0  0
   -0.0162   -0.0467   -0.1978 C   0  0  0  0  0  0  0  0  0  0  0  0
   -3.1189    3.1420   -1.3377 C   0  0  0  0  0  0  0  0  0  0  0  0
   -3.7611    3.8618   -2.0551 C   0  0  0  0  0  0  0  0  0  0  0  0
   -3.5856    2.5813    1.0412 H   0  0  0  0  0  0  0  0  0  0  0  0
   -2.6461    1.2195   -0.6716 H   0  0  0  0  0  0  0  0  0  0  0  0
   -0.6201    2.2370   -1.7055 H   0  0  0  0  0  0  0  0  0  0  0  0
   -0.5715    3.4400   -0.4141 H   0  0  0  0  0  0  0  0  0  0  0  0
   -0.3020    1.5899    1.2711 H   0  0  0  0  0  0  0  0  0  0  0  0
    1.8358    1.9963   -0.8744 H   0  0  0  0  0  0  0  0  0  0  0  0
    2.1243    1.5553    0.8311 H   0  0  0  0  0  0  0  0  0  0  0  0
   -0.5487   -0.2826   -1.1305 H   0  0  0  0  0  0  0  0  0  0  0  0
   -0.3129   -0.7719    0.5697 H   0  0  0  0  0  0  0  0  0  0  0  0
   -4.3239    4.4982   -2.6928 H   0  0  0  0  0  0  0  0  0  0  0  0
  1 10  1  0  0  0  0
  2 11  1  6  0  0  0
  2  1  1  0  0  0  0
  3  2  1  0  0  0  0
  3 13  1  0  0  0  0
  3  4  1  0  0  0  0
  4 14  1  0  0  0  0
  5  4  1  0  0  0  0
  5 16  1  0  0  0  0
  6  7  1  0  0  0  0
  6  5  1  0  0  0  0
  7  4  1  0  0  0  0
  7 18  1  0  0  0  0
  8  2  1  0  0  0  0
  9  8  3  0  0  0  0
 12  3  1  0  0  0  0
 15  5  1  0  0  0  0
 17  7  1  0  0  0  0
 19  9  1  0  0  0  0
M TOR 0 0 1 2 3
M TOR 1 0 1 2 11
M TOR 2 0 1 2 12
M TOR 3 0 1 7 8
M TOR 4 1 2 3 4
M TOR 5 1 2 3 6
M TOR 6 1 2 3 13
M TOR 7 1 7 8 18
M TOR 8 2 1 0 9
M TOR 9 2 1 7 8
M TOR 10 2 3 4 5
M TOR 11 2 3 4 14
M TOR 12 2 3 4 15
M TOR 13 2 3 6 5
M TOR 14 2 3 6 16
M TOR 15 2 3 6 17
M TOR 16 3 2 1 7
M TOR 17 3 2 1 10
M TOR 18 3 4 5 6
M TOR 19 4 3 2 11
M TOR 20 4 3 2 12
M TOR 21 4 3 6 16
M TOR 22 4 3 6 17
M TOR 23 4 5 6 16
M TOR 24 4 5 6 17
M TOR 25 5 4 3 13
M TOR 26 5 6 3 13
M TOR 27 6 3 2 11
M TOR 28 6 3 2 12
M TOR 29 6 3 4 14
M TOR 30 6 3 4 15
M TOR 31 6 5 4 14
M TOR 32 6 5 4 15
M TOR 33 7 1 0 9
M TOR 34 7 1 2 11
M TOR 35 7 1 2 12
M TOR 36 8 7 1 10
M  END
$$$$
