gdb 5516	2.7360831	1.507	1.2420843	2.7181	76.51	-0.23469	0.00381	0.23850000000000002	1088.5894	0.15527	-422.504857	-422.496205	-422.495261	-422.537975	32.673
 OpenBabel02181911423D

 19 20  0  0  1  0  0  0  0  0999 V2000
    1.5032   -0.3089    0.0676 C   0  0  0  0  0  0  0  0  0  0  0  0
    0.1653    0.1284   -0.0668 O   0  0  0  0  0  0  0  0  0  0  0  0
   -0.3827    0.6433    1.1012 C   0  0  2  0  0  0  0  0  0  0  0  0
   -1.9209    0.9013    1.0076 C   0  0  2  0  0  0  0  0  0  0  0  0
   -1.6290    2.1151    0.2573 O   0  0  0  0  0  0  0  0  0  0  0  0
   -0.4972    2.2349    1.1851 C   0  0  2  0  0  0  0  0  0  0  0  0
    0.5768    3.1886    0.7520 C   0  0  0  0  0  0  0  0  0  0  0  0
   -1.2135    2.3524    2.5351 C   0  0  0  0  0  0  0  0  0  0  0  0
   -2.1856    1.4408    2.4166 C   0  0  0  0  0  0  0  0  0  0  0  0
    1.5985   -1.0829    0.8439 H   0  0  0  0  0  0  0  0  0  0  0  0
    1.7991   -0.7335   -0.8942 H   0  0  0  0  0  0  0  0  0  0  0  0
    2.1865    0.5158    0.3146 H   0  0  0  0  0  0  0  0  0  0  0  0
   -0.0095    0.1234    1.9936 H   0  0  0  0  0  0  0  0  0  0  0  0
   -2.6116    0.2143    0.5220 H   0  0  0  0  0  0  0  0  0  0  0  0
    1.3770    3.2389    1.4974 H   0  0  0  0  0  0  0  0  0  0  0  0
    1.0003    2.8694   -0.2039 H   0  0  0  0  0  0  0  0  0  0  0  0
    0.1629    4.1939    0.6242 H   0  0  0  0  0  0  0  0  0  0  0  0
   -0.9324    2.9821    3.3673 H   0  0  0  0  0  0  0  0  0  0  0  0
   -2.9339    1.1070    3.1202 H   0  0  0  0  0  0  0  0  0  0  0  0
  1 12  1  0  0  0  0
  1 10  1  0  0  0  0
  2  1  1  0  0  0  0
  2  3  1  0  0  0  0
  3  6  1  0  0  0  0
  3 13  1  1  0  0  0
  4 14  1  6  0  0  0
  4  3  1  0  0  0  0
  4  9  1  0  0  0  0
  5  4  1  0  0  0  0
  5  6  1  0  0  0  0
  6  7  1  6  0  0  0
  6  8  1  0  0  0  0
  7 15  1  0  0  0  0
  8 18  1  0  0  0  0
  9  8  2  0  0  0  0
  9 19  1  0  0  0  0
 11  1  1  0  0  0  0
 16  7  1  0  0  0  0
 17  7  1  0  0  0  0
M TOR 0 0 1 2 3
M TOR 1 0 1 2 5
M TOR 2 0 1 2 12
M TOR 3 1 2 3 4
M TOR 4 1 2 3 8
M TOR 5 1 2 3 13
M TOR 6 1 2 5 4
M TOR 7 1 2 5 6
M TOR 8 1 2 5 7
M TOR 9 2 1 0 9
M TOR 10 2 1 0 10
M TOR 11 2 1 0 11
M TOR 12 2 3 4 5
M TOR 13 2 3 8 7
M TOR 14 2 3 8 18
M TOR 15 2 5 6 14
M TOR 16 2 5 6 15
M TOR 17 2 5 6 16
M TOR 18 2 5 7 8
M TOR 19 2 5 7 17
M TOR 20 3 2 5 6
M TOR 21 3 2 5 7
M TOR 22 3 4 5 6
M TOR 23 3 4 5 7
M TOR 24 3 8 7 5
M TOR 25 3 8 7 17
M TOR 26 4 3 2 12
M TOR 27 4 3 8 7
M TOR 28 4 3 8 18
M TOR 29 4 5 2 12
M TOR 30 4 5 6 14
M TOR 31 4 5 6 15
M TOR 32 4 5 6 16
M TOR 33 4 5 7 8
M TOR 34 4 5 7 17
M TOR 35 5 2 3 8
M TOR 36 5 2 3 13
M TOR 37 5 4 3 8
M TOR 38 5 4 3 13
M TOR 39 5 7 8 18
M TOR 40 6 5 2 12
M TOR 41 6 5 7 8
M TOR 42 6 5 7 17
M TOR 43 7 5 2 12
M TOR 44 7 5 6 14
M TOR 45 7 5 6 15
M TOR 46 7 5 6 16
M TOR 47 7 8 3 13
M TOR 48 8 3 2 12
M  END
$$$$
