
     RDKit          3D

 19 20  0  0  0  0  0  0  0  0999 V2000
   -0.6223   -2.1809    1.2097 C   0  0  0  0  0  0  0  0  0  0  0  0
   -0.7715   -1.1321    0.1051 C   0  0  0  0  0  0  0  0  0  0  0  0
    0.0724    0.1296    0.3836 C   0  0  0  0  0  0  0  0  0  0  0  0
    1.1839    0.1226    0.8415 O   0  0  0  0  0  0  0  0  0  0  0  0
   -0.7195    1.3852   -0.0156 C   0  0  0  0  0  0  0  0  0  0  0  0
   -2.1335    0.8825   -0.1642 C   0  0  0  0  0  0  0  0  0  0  0  0
   -2.6032    0.2101    1.0149 O   0  0  0  0  0  0  0  0  0  0  0  0
   -2.1781   -0.5918   -0.1055 C   0  0  0  0  0  0  0  0  0  0  0  0
   -3.2386   -1.4312   -0.7622 C   0  0  0  0  0  0  0  0  0  0  0  0
   -1.0851   -3.1303    0.9259 H   0  0  0  0  0  0  0  0  0  0  0  0
    0.4378   -2.3545    1.4100 H   0  0  0  0  0  0  0  0  0  0  0  0
   -1.0932   -1.8263    2.1308 H   0  0  0  0  0  0  0  0  0  0  0  0
   -0.4035   -1.5480   -0.8458 H   0  0  0  0  0  0  0  0  0  0  0  0
   -0.6052    2.1655    0.7418 H   0  0  0  0  0  0  0  0  0  0  0  0
   -0.3251    1.7797   -0.9610 H   0  0  0  0  0  0  0  0  0  0  0  0
   -2.8818    1.4603   -0.7014 H   0  0  0  0  0  0  0  0  0  0  0  0
   -3.4472   -2.3282   -0.1695 H   0  0  0  0  0  0  0  0  0  0  0  0
   -4.1688   -0.8658   -0.8596 H   0  0  0  0  0  0  0  0  0  0  0  0
   -2.9175   -1.7543   -1.7581 H   0  0  0  0  0  0  0  0  0  0  0  0
  1  2  1  0
  2  3  1  0
  3  4  2  0
  3  5  1  0
  5  6  1  0
  6  7  1  0
  7  8  1  0
  8  9  1  0
  8  2  1  0
  8  6  1  0
  1 10  1  0
  1 11  1  0
  1 12  1  0
  2 13  1  0
  5 14  1  0
  5 15  1  0
  6 16  1  0
  9 17  1  0
  9 18  1  0
  9 19  1  0
M  END
$$$$
