gdb 2383	3.5614602	0.9639503	0.8683932	4.3543	77.01	-0.23759	-0.013	0.22458999999999998	1365.6072	0.155347	-422.535974	-422.526945	-422.526001	-422.570277	33.203
 OpenBabel02181911413D

 19 20  0  0  1  0  0  0  0  0999 V2000
    1.1654    3.0347    0.6217 O   0  0  0  0  0  0  0  0  0  0  0  0
   -0.2099    3.1821    0.5954 C   0  0  2  0  0  0  0  0  0  0  0  0
   -0.9639    4.3026   -0.1235 C   0  0  0  0  0  0  0  0  0  0  0  0
   -2.0680    4.2330    0.9871 C   0  0  0  0  0  0  0  0  0  0  0  0
   -1.2733    3.1384    1.7057 C   0  0  1  0  0  0  0  0  0  0  0  0
   -1.0705    1.9671    0.7588 C   0  0  2  0  0  0  0  0  0  0  0  0
   -0.4194    0.7181    1.3284 C   0  0  0  0  0  0  0  0  0  0  0  0
    0.3016   -0.0795    0.2582 C   0  0  0  0  0  0  0  0  0  0  0  0
    0.1278   -1.2528    0.0480 O   0  0  0  0  0  0  0  0  0  0  0  0
    1.5553    3.8446    0.9693 H   0  0  0  0  0  0  0  0  0  0  0  0
   -0.4217    5.2527   -0.0944 H   0  0  0  0  0  0  0  0  0  0  0  0
   -1.2648    4.1040   -1.1574 H   0  0  0  0  0  0  0  0  0  0  0  0
   -2.1487    5.1611    1.5569 H   0  0  0  0  0  0  0  0  0  0  0  0
   -3.0673    3.9429    0.6471 H   0  0  0  0  0  0  0  0  0  0  0  0
   -1.1774    3.0086    2.7773 H   0  0  0  0  0  0  0  0  0  0  0  0
   -1.8438    1.7674    0.0151 H   0  0  0  0  0  0  0  0  0  0  0  0
    0.3333    1.0101    2.0721 H   0  0  0  0  0  0  0  0  0  0  0  0
   -1.1530    0.0682    1.8148 H   0  0  0  0  0  0  0  0  0  0  0  0
    1.0274    0.5154   -0.3386 H   0  0  0  0  0  0  0  0  0  0  0  0
  1 10  1  0  0  0  0
  2  1  1  1  0  0  0
  2  6  1  0  0  0  0
  2  5  1  0  0  0  0
  3 11  1  0  0  0  0
  3  2  1  0  0  0  0
  3  4  1  0  0  0  0
  4 13  1  0  0  0  0
  4  5  1  0  0  0  0
  5 15  1  1  0  0  0
  6 16  1  6  0  0  0
  6  7  1  0  0  0  0
  6  5  1  0  0  0  0
  7 18  1  0  0  0  0
  7 17  1  0  0  0  0
  8  7  1  0  0  0  0
  9  8  2  0  0  0  0
 12  3  1  0  0  0  0
 14  4  1  0  0  0  0
 19  8  1  0  0  0  0
M TOR 0 0 1 2 3
M TOR 1 0 1 2 10
M TOR 2 0 1 2 11
M TOR 3 0 1 4 3
M TOR 4 0 1 4 5
M TOR 5 0 1 4 14
M TOR 6 0 1 5 6
M TOR 7 0 1 5 15
M TOR 8 1 2 3 4
M TOR 9 1 2 3 12
M TOR 10 1 2 3 13
M TOR 11 1 4 3 12
M TOR 12 1 4 3 13
M TOR 13 1 4 5 6
M TOR 14 1 4 5 15
M TOR 15 1 5 4 3
M TOR 16 1 5 4 14
M TOR 17 1 5 6 7
M TOR 18 1 5 6 16
M TOR 19 1 5 6 17
M TOR 20 2 1 0 9
M TOR 21 2 1 4 5
M TOR 22 2 1 4 14
M TOR 23 2 1 5 6
M TOR 24 2 1 5 15
M TOR 25 2 3 4 5
M TOR 26 2 3 4 14
M TOR 27 3 2 1 5
M TOR 28 3 4 5 6
M TOR 29 3 4 5 15
M TOR 30 4 1 0 9
M TOR 31 4 1 2 10
M TOR 32 4 1 2 11
M TOR 33 4 3 2 10
M TOR 34 4 3 2 11
M TOR 35 4 5 6 7
M TOR 36 4 5 6 16
M TOR 37 4 5 6 17
M TOR 38 5 1 0 9
M TOR 39 5 1 2 10
M TOR 40 5 1 2 11
M TOR 41 5 4 3 12
M TOR 42 5 4 3 13
M TOR 43 5 6 7 8
M TOR 44 5 6 7 18
M TOR 45 6 5 4 14
M TOR 46 7 6 5 15
M TOR 47 8 7 6 16
M TOR 48 8 7 6 17
M  END
$$$$
