gdb 845	3.6295382	1.1786382	1.0376759	2.0444	75.35	-0.24803	-0.02353	0.2245	1178.6005	0.157794	-422.562129	-422.554086	-422.553142	-422.595482	29.868
 OpenBabel02181911403D

 19 20  0  0  1  0  0  0  0  0999 V2000
    0.5893   -0.8851    0.2771 O   0  0  0  0  0  0  0  0  0  0  0  0
    0.4932    0.1757   -0.2876 C   0  0  0  0  0  0  0  0  0  0  0  0
    0.4003    1.5151    0.3905 C   0  0  1  0  0  0  0  0  0  0  0  0
   -1.0391    2.1433    0.3299 C   0  0  0  0  0  0  0  0  0  0  0  0
   -1.0681    2.1720    1.8875 C   0  0  2  0  0  0  0  0  0  0  0  0
   -0.9581    3.4526    2.4775 O   0  0  0  0  0  0  0  0  0  0  0  0
    0.4153    3.8335    2.4786 C   0  0  0  0  0  0  0  0  0  0  0  0
    1.2038    2.5289    2.6783 C   0  0  0  0  0  0  0  0  0  0  0  0
    0.3406    1.5011    1.9404 C   0  0  2  0  0  0  0  0  0  0  0  0
    0.4335    0.2243   -1.4001 H   0  0  0  0  0  0  0  0  0  0  0  0
    1.1658    2.1702   -0.0426 H   0  0  0  0  0  0  0  0  0  0  0  0
   -1.1037    3.1285   -0.1357 H   0  0  0  0  0  0  0  0  0  0  0  0
   -1.7941    1.4913   -0.1181 H   0  0  0  0  0  0  0  0  0  0  0  0
   -1.9156    1.6637    2.3514 H   0  0  0  0  0  0  0  0  0  0  0  0
    0.6881    4.3164    1.5263 H   0  0  0  0  0  0  0  0  0  0  0  0
    0.5572    4.5652    3.2782 H   0  0  0  0  0  0  0  0  0  0  0  0
    2.2268    2.5910    2.2960 H   0  0  0  0  0  0  0  0  0  0  0  0
    1.2530    2.2793    3.7425 H   0  0  0  0  0  0  0  0  0  0  0  0
    0.3973    0.4949    2.3543 H   0  0  0  0  0  0  0  0  0  0  0  0
  2  1  2  0  0  0  0
  2  3  1  0  0  0  0
  3 11  1  6  0  0  0
  3  9  1  0  0  0  0
  4  3  1  0  0  0  0
  4  5  1  0  0  0  0
  5  9  1  0  0  0  0
  5 14  1  1  0  0  0
  5  6  1  0  0  0  0
  6  7  1  0  0  0  0
  7  8  1  0  0  0  0
  7 16  1  0  0  0  0
  8 18  1  0  0  0  0
  9 19  1  1  0  0  0
  9  8  1  0  0  0  0
 10  2  1  0  0  0  0
 12  4  1  0  0  0  0
 13  4  1  0  0  0  0
 15  7  1  0  0  0  0
 17  8  1  0  0  0  0
M TOR 0 0 1 2 3
M TOR 1 0 1 2 8
M TOR 2 0 1 2 10
M TOR 3 1 2 3 4
M TOR 4 1 2 3 11
M TOR 5 1 2 3 12
M TOR 6 1 2 8 4
M TOR 7 1 2 8 7
M TOR 8 1 2 8 18
M TOR 9 2 3 4 5
M TOR 10 2 3 4 8
M TOR 11 2 3 4 13
M TOR 12 2 8 4 5
M TOR 13 2 8 4 13
M TOR 14 2 8 7 6
M TOR 15 2 8 7 16
M TOR 16 2 8 7 17
M TOR 17 3 2 1 9
M TOR 18 3 2 8 7
M TOR 19 3 2 8 18
M TOR 20 3 4 5 6
M TOR 21 3 4 8 7
M TOR 22 3 4 8 18
M TOR 23 4 3 2 10
M TOR 24 4 5 6 7
M TOR 25 4 5 6 14
M TOR 26 4 5 6 15
M TOR 27 4 8 2 10
M TOR 28 4 8 7 6
M TOR 29 4 8 7 16
M TOR 30 4 8 7 17
M TOR 31 5 4 3 11
M TOR 32 5 4 3 12
M TOR 33 5 4 8 7
M TOR 34 5 4 8 18
M TOR 35 5 6 7 8
M TOR 36 5 6 7 16
M TOR 37 5 6 7 17
M TOR 38 6 5 4 8
M TOR 39 6 5 4 13
M TOR 40 6 7 8 18
M TOR 41 7 8 2 10
M TOR 42 7 8 4 13
M TOR 43 8 2 1 9
M TOR 44 8 2 3 11
M TOR 45 8 2 3 12
M TOR 46 8 4 3 11
M TOR 47 8 4 3 12
M TOR 48 8 7 6 14
M TOR 49 8 7 6 15
M  END
$$$$
