
     RDKit          3D

 19 19  0  0  0  0  0  0  0  0999 V2000
    1.1128   -1.2222    7.6777 C   0  0  0  0  0  0  0  0  0  0  0  0
    2.1035   -2.0700    8.4762 C   0  0  0  0  0  0  0  0  0  0  0  0
    3.4021   -1.5487    8.2051 O   0  0  0  0  0  0  0  0  0  0  0  0
    4.4647   -2.3141    8.7138 C   0  0  0  0  0  0  0  0  0  0  0  0
    5.8398   -1.7410    8.3425 C   0  0  0  0  0  0  0  0  0  0  0  0
    6.2417   -2.9878    7.7361 O   0  0  0  0  0  0  0  0  0  0  0  0
    4.9218   -3.5474    7.8947 C   0  0  0  0  0  0  0  0  0  0  0  0
    1.7944   -2.0616    9.9132 C   0  0  0  0  0  0  0  0  0  0  0  0
    1.5348   -2.0490   11.0868 C   0  0  0  0  0  0  0  0  0  0  0  0
    1.1625   -0.1820    8.0081 H   0  0  0  0  0  0  0  0  0  0  0  0
    1.3672   -1.2688    6.6160 H   0  0  0  0  0  0  0  0  0  0  0  0
    0.0943   -1.5904    7.8215 H   0  0  0  0  0  0  0  0  0  0  0  0
    2.0489   -3.1122    8.1208 H   0  0  0  0  0  0  0  0  0  0  0  0
    4.3255   -2.5143    9.7819 H   0  0  0  0  0  0  0  0  0  0  0  0
    5.7726   -0.9227    7.6147 H   0  0  0  0  0  0  0  0  0  0  0  0
    6.4996   -1.4499    9.1669 H   0  0  0  0  0  0  0  0  0  0  0  0
    4.3960   -3.6514    6.9357 H   0  0  0  0  0  0  0  0  0  0  0  0
    4.9457   -4.5148    8.4093 H   0  0  0  0  0  0  0  0  0  0  0  0
    1.3045   -2.0400   12.1238 H   0  0  0  0  0  0  0  0  0  0  0  0
  1  2  1  0
  2  3  1  0
  3  4  1  0
  4  5  1  0
  5  6  1  0
  6  7  1  0
  2  8  1  0
  8  9  3  0
  7  4  1  0
  1 10  1  0
  1 11  1  0
  1 12  1  0
  2 13  1  0
  4 14  1  0
  5 15  1  0
  5 16  1  0
  7 17  1  0
  7 18  1  0
  9 19  1  0
M  END
$$$$
