gdb 2454	2.4984197	2.2686158	1.5960635	1.8435	73.79	-0.22437	0.09288	0.31725000000000003	903.2783	0.159053	-422.548863	-422.541925	-422.540981	-422.579639	28.767
 OpenBabel02181911413D

 19 21  0  0  1  0  0  0  0  0999 V2000
    0.0701    0.2054    0.2716 C   0  0  0  0  0  0  0  0  0  0  0  0
    1.4474   -0.2468   -0.1486 C   0  0  2  0  0  0  0  0  0  0  0  0
    1.9448   -1.1772    0.7977 O   0  0  0  0  0  0  0  0  0  0  0  0
    2.9338   -1.9744    0.1303 C   0  0  0  0  0  0  0  0  0  0  0  0
    3.1661   -1.2020   -1.1612 C   0  0  2  0  0  0  0  0  0  0  0  0
    3.7008    0.0775   -0.7341 O   0  0  0  0  0  0  0  0  0  0  0  0
    2.4886    0.8409   -0.6345 C   0  0  1  0  0  0  0  0  0  0  0  0
    1.9000    0.6873   -2.0560 C   0  0  0  0  0  0  0  0  0  0  0  0
    1.7362   -0.7791   -1.5917 C   0  0  2  0  0  0  0  0  0  0  0  0
    0.1151    0.6333    1.2779 H   0  0  0  0  0  0  0  0  0  0  0  0
   -0.3362    0.9638   -0.4016 H   0  0  0  0  0  0  0  0  0  0  0  0
   -0.6180   -0.6448    0.2986 H   0  0  0  0  0  0  0  0  0  0  0  0
    3.8411   -2.0186    0.7400 H   0  0  0  0  0  0  0  0  0  0  0  0
    2.5567   -2.9952   -0.0358 H   0  0  0  0  0  0  0  0  0  0  0  0
    3.8186   -1.6676   -1.9011 H   0  0  0  0  0  0  0  0  0  0  0  0
    2.6780    1.7911   -0.1369 H   0  0  0  0  0  0  0  0  0  0  0  0
    0.9456    1.1910   -2.2127 H   0  0  0  0  0  0  0  0  0  0  0  0
    2.5882    0.8958   -2.8766 H   0  0  0  0  0  0  0  0  0  0  0  0
    1.1146   -1.5200   -2.0933 H   0  0  0  0  0  0  0  0  0  0  0  0
  1 12  1  0  0  0  0
  1 10  1  0  0  0  0
  2  1  1  1  0  0  0
  2  3  1  0  0  0  0
  4 13  1  0  0  0  0
  4  3  1  0  0  0  0
  5 15  1  6  0  0  0
  5  6  1  0  0  0  0
  5  4  1  0  0  0  0
  6  7  1  0  0  0  0
  7  2  1  0  0  0  0
  7 16  1  1  0  0  0
  8  9  1  0  0  0  0
  8  7  1  0  0  0  0
  9 19  1  6  0  0  0
  9  5  1  0  0  0  0
  9  2  1  0  0  0  0
 11  1  1  0  0  0  0
 14  4  1  0  0  0  0
 17  8  1  0  0  0  0
 18  8  1  0  0  0  0
M TOR 0 0 1 2 3
M TOR 1 0 1 6 5
M TOR 2 0 1 6 7
M TOR 3 0 1 6 15
M TOR 4 0 1 8 4
M TOR 5 0 1 8 7
M TOR 6 0 1 8 18
M TOR 7 1 2 3 4
M TOR 8 1 2 3 12
M TOR 9 1 2 3 13
M TOR 10 1 6 5 4
M TOR 11 1 6 7 8
M TOR 12 1 6 7 16
M TOR 13 1 6 7 17
M TOR 14 1 8 4 3
M TOR 15 1 8 4 5
M TOR 16 1 8 4 14
M TOR 17 1 8 7 16
M TOR 18 1 8 7 17
M TOR 19 2 1 0 9
M TOR 20 2 1 0 10
M TOR 21 2 1 0 11
M TOR 22 2 1 6 5
M TOR 23 2 1 6 7
M TOR 24 2 1 6 15
M TOR 25 2 1 8 4
M TOR 26 2 1 8 7
M TOR 27 2 1 8 18
M TOR 28 2 3 4 5
M TOR 29 2 3 4 8
M TOR 30 2 3 4 14
M TOR 31 3 2 1 6
M TOR 32 3 2 1 8
M TOR 33 3 4 5 6
M TOR 34 3 4 8 7
M TOR 35 3 4 8 18
M TOR 36 4 5 6 7
M TOR 37 4 5 6 15
M TOR 38 4 8 1 6
M TOR 39 4 8 7 6
M TOR 40 4 8 7 16
M TOR 41 4 8 7 17
M TOR 42 5 4 3 12
M TOR 43 5 4 3 13
M TOR 44 5 4 8 7
M TOR 45 5 4 8 18
M TOR 46 5 6 1 8
M TOR 47 5 6 7 8
M TOR 48 5 6 7 16
M TOR 49 5 6 7 17
M TOR 50 6 1 0 9
M TOR 51 6 1 0 10
M TOR 52 6 1 0 11
M TOR 53 6 1 8 18
M TOR 54 6 5 4 8
M TOR 55 6 5 4 14
M TOR 56 6 7 8 18
M TOR 57 7 8 4 14
M TOR 58 8 1 0 9
M TOR 59 8 1 0 10
M TOR 60 8 1 0 11
M TOR 61 8 1 6 15
M TOR 62 8 4 3 12
M TOR 63 8 4 3 13
M TOR 64 8 7 6 15
M  END
$$$$
