
     RDKit          3D

 19 20  0  0  0  0  0  0  0  0999 V2000
   -4.7851   -1.3254   -2.4028 O   0  0  0  0  0  0  0  0  0  0  0  0
   -4.3165   -0.7121   -1.2379 C   0  0  0  0  0  0  0  0  0  0  0  0
   -4.2753    0.7835   -1.2557 C   0  0  0  0  0  0  0  0  0  0  0  0
   -2.9794   -0.0089   -1.2448 C   0  0  0  0  0  0  0  0  0  0  0  0
   -2.0856   -0.0159   -0.0359 C   0  0  0  0  0  0  0  0  0  0  0  0
   -0.9806   -1.1224    0.0447 C   0  0  0  0  0  0  0  0  0  0  0  0
    0.0270   -0.0175    0.4011 C   0  0  0  0  0  0  0  0  0  0  0  0
    1.1369   -0.0209    0.8472 O   0  0  0  0  0  0  0  0  0  0  0  0
   -0.9804    1.0903    0.0576 C   0  0  0  0  0  0  0  0  0  0  0  0
   -4.3269   -2.1667   -2.5018 H   0  0  0  0  0  0  0  0  0  0  0  0
   -4.6206   -1.1939   -0.3074 H   0  0  0  0  0  0  0  0  0  0  0  0
   -4.5598    1.2613   -2.1859 H   0  0  0  0  0  0  0  0  0  0  0  0
   -4.5646    1.3186   -0.3574 H   0  0  0  0  0  0  0  0  0  0  0  0
   -2.4601   -0.0441   -2.2007 H   0  0  0  0  0  0  0  0  0  0  0  0
   -2.6932   -0.0192    0.8745 H   0  0  0  0  0  0  0  0  0  0  0  0
   -1.0987   -1.9258    0.7761 H   0  0  0  0  0  0  0  0  0  0  0  0
   -0.7533   -1.5707   -0.9298 H   0  0  0  0  0  0  0  0  0  0  0  0
   -1.0990    1.8857    0.7975 H   0  0  0  0  0  0  0  0  0  0  0  0
   -0.7568    1.5496   -0.9121 H   0  0  0  0  0  0  0  0  0  0  0  0
  1  2  1  0
  2  3  1  0
  3  4  1  0
  4  5  1  0
  5  6  1  0
  6  7  1  0
  7  8  2  0
  7  9  1  0
  4  2  1  0
  9  5  1  0
  1 10  1  0
  2 11  1  0
  3 12  1  0
  3 13  1  0
  4 14  1  0
  5 15  1  0
  6 16  1  0
  6 17  1  0
  9 18  1  0
  9 19  1  0
M  END
$$$$
