gdb 1542	2.9845964	1.6682413	1.5015062	2.8649	72.87	-0.2255	0.0681	0.29359999999999997	959.2645	0.156981	-422.529902	-422.522087	-422.521143	-422.561562	31.457
 OpenBabel02181911403D

 19 21  0  0  1  0  0  0  0  0999 V2000
   -0.0321    0.3803    0.1104 C   0  0  0  0  0  0  0  0  0  0  0  0
    1.4663    0.0629    0.0451 C   0  0  1  0  0  0  0  0  0  0  0  0
    2.2209    1.2542   -0.1081 O   0  0  0  0  0  0  0  0  0  0  0  0
    1.9284   -0.8253    1.2486 C   0  0  0  0  0  0  0  0  0  0  0  0
    1.9267   -2.2464    0.6913 C   0  0  2  0  0  0  0  0  0  0  0  0
    2.8081   -2.4811   -0.5196 C   0  0  2  0  0  0  0  0  0  0  0  0
    3.1851   -1.2332   -1.1006 O   0  0  0  0  0  0  0  0  0  0  0  0
    1.7724   -0.8529   -1.1466 C   0  0  1  0  0  0  0  0  0  0  0  0
    1.3414   -2.2686   -0.7167 C   0  0  2  0  0  0  0  0  0  0  0  0
   -0.2471    1.0040    0.9864 H   0  0  0  0  0  0  0  0  0  0  0  0
   -0.3496    0.9275   -0.7824 H   0  0  0  0  0  0  0  0  0  0  0  0
   -0.6335   -0.5296    0.1999 H   0  0  0  0  0  0  0  0  0  0  0  0
    2.0324    1.8244    0.6441 H   0  0  0  0  0  0  0  0  0  0  0  0
    2.9281   -0.5103    1.5596 H   0  0  0  0  0  0  0  0  0  0  0  0
    1.2531   -0.7294    2.1046 H   0  0  0  0  0  0  0  0  0  0  0  0
    1.7466   -3.0974    1.3388 H   0  0  0  0  0  0  0  0  0  0  0  0
    3.4574   -3.3352   -0.6713 H   0  0  0  0  0  0  0  0  0  0  0  0
    1.4947   -0.4601   -2.1258 H   0  0  0  0  0  0  0  0  0  0  0  0
    0.5479   -2.8947   -1.0984 H   0  0  0  0  0  0  0  0  0  0  0  0
  1 12  1  0  0  0  0
  1 10  1  0  0  0  0
  2  3  1  6  0  0  0
  2  1  1  0  0  0  0
  2  4  1  0  0  0  0
  3 13  1  0  0  0  0
  4 14  1  0  0  0  0
  4 15  1  0  0  0  0
  5  4  1  0  0  0  0
  5 16  1  1  0  0  0
  6 17  1  6  0  0  0
  6  5  1  0  0  0  0
  7  6  1  0  0  0  0
  8 18  1  6  0  0  0
  8  7  1  0  0  0  0
  8  9  1  0  0  0  0
  8  2  1  0  0  0  0
  9 19  1  6  0  0  0
  9  6  1  0  0  0  0
  9  5  1  0  0  0  0
 11  1  1  0  0  0  0
M TOR 0 0 1 2 12
M TOR 1 0 1 3 4
M TOR 2 0 1 3 13
M TOR 3 0 1 3 14
M TOR 4 0 1 7 6
M TOR 5 0 1 7 8
M TOR 6 0 1 7 17
M TOR 7 1 3 4 5
M TOR 8 1 3 4 8
M TOR 9 1 3 4 15
M TOR 10 1 7 6 5
M TOR 11 1 7 8 4
M TOR 12 1 7 8 5
M TOR 13 1 7 8 18
M TOR 14 2 1 0 9
M TOR 15 2 1 0 10
M TOR 16 2 1 0 11
M TOR 17 2 1 3 4
M TOR 18 2 1 3 13
M TOR 19 2 1 3 14
M TOR 20 2 1 7 6
M TOR 21 2 1 7 8
M TOR 22 2 1 7 17
M TOR 23 3 1 0 9
M TOR 24 3 1 0 10
M TOR 25 3 1 0 11
M TOR 26 3 1 2 12
M TOR 27 3 1 7 6
M TOR 28 3 1 7 8
M TOR 29 3 1 7 17
M TOR 30 3 4 5 6
M TOR 31 3 4 5 8
M TOR 32 3 4 5 16
M TOR 33 3 4 8 7
M TOR 34 3 4 8 18
M TOR 35 4 3 1 7
M TOR 36 4 5 6 7
M TOR 37 4 5 8 7
M TOR 38 4 5 8 18
M TOR 39 4 8 5 6
M TOR 40 4 8 5 16
M TOR 41 4 8 7 6
M TOR 42 4 8 7 17
M TOR 43 5 4 3 13
M TOR 44 5 4 3 14
M TOR 45 5 6 7 8
M TOR 46 5 6 7 17
M TOR 47 5 8 4 15
M TOR 48 5 8 7 17
M TOR 49 6 5 4 15
M TOR 50 6 5 8 18
M TOR 51 6 7 8 18
M TOR 52 7 1 0 9
M TOR 53 7 1 0 10
M TOR 54 7 1 0 11
M TOR 55 7 1 2 12
M TOR 56 7 1 3 13
M TOR 57 7 1 3 14
M TOR 58 7 6 5 16
M TOR 59 7 8 4 15
M TOR 60 7 8 5 16
M TOR 61 8 4 3 13
M TOR 62 8 4 3 14
M  END
$$$$
