
     RDKit          3D

 19 20  0  0  0  0  0  0  0  0999 V2000
   -2.1464   -2.8138   -1.7413 C   0  0  0  0  0  0  0  0  0  0  0  0
   -1.7215   -1.4321   -1.2974 C   0  0  0  0  0  0  0  0  0  0  0  0
   -0.8859   -1.3046   -0.0013 C   0  0  0  0  0  0  0  0  0  0  0  0
    0.0197   -0.1282    0.0660 C   0  0  0  0  0  0  0  0  0  0  0  0
    1.1980   -0.1024    0.3180 O   0  0  0  0  0  0  0  0  0  0  0  0
   -0.8612    1.1056   -0.1908 C   0  0  0  0  0  0  0  0  0  0  0  0
   -2.2133    0.6789   -0.1475 O   0  0  0  0  0  0  0  0  0  0  0  0
   -2.2891   -0.7399   -0.1016 C   0  0  0  0  0  0  0  0  0  0  0  0
   -3.4836   -1.1999    0.6839 C   0  0  0  0  0  0  0  0  0  0  0  0
   -2.3923   -3.4596   -0.8938 H   0  0  0  0  0  0  0  0  0  0  0  0
   -3.0280   -2.7607   -2.3891 H   0  0  0  0  0  0  0  0  0  0  0  0
   -1.3448   -3.3026   -2.3048 H   0  0  0  0  0  0  0  0  0  0  0  0
   -1.4272   -0.7740   -2.1116 H   0  0  0  0  0  0  0  0  0  0  0  0
   -0.6260   -2.2071    0.5374 H   0  0  0  0  0  0  0  0  0  0  0  0
   -0.6833    1.8613    0.5821 H   0  0  0  0  0  0  0  0  0  0  0  0
   -0.6102    1.5535   -1.1631 H   0  0  0  0  0  0  0  0  0  0  0  0
   -3.4200   -0.8440    1.7163 H   0  0  0  0  0  0  0  0  0  0  0  0
   -4.3991   -0.7942    0.2410 H   0  0  0  0  0  0  0  0  0  0  0  0
   -3.5625   -2.2889    0.6956 H   0  0  0  0  0  0  0  0  0  0  0  0
  1  2  1  0
  2  3  1  0
  3  4  1  0
  4  5  2  0
  4  6  1  0
  6  7  1  0
  7  8  1  0
  8  9  1  0
  8  2  1  0
  8  3  1  0
  1 10  1  0
  1 11  1  0
  1 12  1  0
  2 13  1  0
  3 14  1  0
  6 15  1  0
  6 16  1  0
  9 17  1  0
  9 18  1  0
  9 19  1  0
M  END
$$$$
