gdb 363	4.3692042	1.0674882	0.910176	0.4718	77.59	-0.22804	0.01431	0.24234999999999998	1291.0944	0.157615	-422.533697	-422.525419	-422.524475	-422.567763	29.896
 OpenBabel02181911403D

 19 20  0  0  1  0  0  0  0  0999 V2000
   -1.1798    5.0534    0.0118 C   0  0  0  0  0  0  0  0  0  0  0  0
   -0.0115    4.3996    0.7770 C   0  0  0  0  0  0  0  0  0  0  0  0
   -0.7548    3.0776    0.4937 C   0  0  1  0  0  0  0  0  0  0  0  0
   -1.7875    3.7678   -0.2483 O   0  0  0  0  0  0  0  0  0  0  0  0
   -0.0435    2.0455   -0.3816 C   0  0  1  0  0  0  0  0  0  0  0  0
    1.0165    1.4466    0.3673 O   0  0  0  0  0  0  0  0  0  0  0  0
    0.8593    0.0281    0.4032 C   0  0  0  0  0  0  0  0  0  0  0  0
   -0.4169   -0.2421   -0.3432 C   0  0  0  0  0  0  0  0  0  0  0  0
   -0.9241    0.8986   -0.7955 C   0  0  0  0  0  0  0  0  0  0  0  0
   -1.8354    5.6974    0.6109 H   0  0  0  0  0  0  0  0  0  0  0  0
   -0.9221    5.5778   -0.9160 H   0  0  0  0  0  0  0  0  0  0  0  0
    0.9661    4.4793    0.2981 H   0  0  0  0  0  0  0  0  0  0  0  0
    0.0813    4.6732    1.8282 H   0  0  0  0  0  0  0  0  0  0  0  0
   -1.1615    2.5749    1.3811 H   0  0  0  0  0  0  0  0  0  0  0  0
    0.3736    2.5727   -1.2567 H   0  0  0  0  0  0  0  0  0  0  0  0
    1.7306   -0.4578   -0.0648 H   0  0  0  0  0  0  0  0  0  0  0  0
    0.8217   -0.3152    1.4485 H   0  0  0  0  0  0  0  0  0  0  0  0
   -0.8253   -1.2361   -0.4753 H   0  0  0  0  0  0  0  0  0  0  0  0
   -1.8308    1.0405   -1.3676 H   0  0  0  0  0  0  0  0  0  0  0  0
  1 10  1  0  0  0  0
  1  2  1  0  0  0  0
  2 13  1  0  0  0  0
  3  2  1  0  0  0  0
  3 14  1  1  0  0  0
  4  1  1  0  0  0  0
  4  3  1  0  0  0  0
  5 15  1  6  0  0  0
  5  6  1  0  0  0  0
  5  3  1  0  0  0  0
  6  7  1  0  0  0  0
  7 17  1  0  0  0  0
  8  7  1  0  0  0  0
  9  5  1  0  0  0  0
  9  8  2  0  0  0  0
 11  1  1  0  0  0  0
 12  2  1  0  0  0  0
 16  7  1  0  0  0  0
 18  8  1  0  0  0  0
 19  9  1  0  0  0  0
M TOR 0 0 1 2 3
M TOR 1 0 1 2 4
M TOR 2 0 1 2 13
M TOR 3 0 3 2 4
M TOR 4 0 3 2 13
M TOR 5 1 2 4 5
M TOR 6 1 2 4 8
M TOR 7 1 2 4 14
M TOR 8 2 1 0 9
M TOR 9 2 1 0 10
M TOR 10 2 3 0 9
M TOR 11 2 3 0 10
M TOR 12 2 4 5 6
M TOR 13 2 4 8 7
M TOR 14 2 4 8 18
M TOR 15 3 0 1 11
M TOR 16 3 0 1 12
M TOR 17 3 2 1 11
M TOR 18 3 2 1 12
M TOR 19 3 2 4 5
M TOR 20 3 2 4 8
M TOR 21 3 2 4 14
M TOR 22 4 2 1 11
M TOR 23 4 2 1 12
M TOR 24 4 5 6 7
M TOR 25 4 5 6 15
M TOR 26 4 5 6 16
M TOR 27 4 8 7 6
M TOR 28 4 8 7 17
M TOR 29 5 4 2 13
M TOR 30 5 4 8 7
M TOR 31 5 4 8 18
M TOR 32 5 6 7 8
M TOR 33 5 6 7 17
M TOR 34 6 5 4 8
M TOR 35 6 5 4 14
M TOR 36 6 7 8 18
M TOR 37 7 8 4 14
M TOR 38 8 4 2 13
M TOR 39 8 7 6 15
M TOR 40 8 7 6 16
M  END
$$$$
