
     RDKit          3D

 19 19  0  0  0  0  0  0  0  0999 V2000
    1.5435    0.5192   -0.1234 C   0  0  0  0  0  0  0  0  0  0  0  0
    0.1588    0.2553   -0.0542 O   0  0  0  0  0  0  0  0  0  0  0  0
   -0.3987    0.5117    1.1986 C   0  0  0  0  0  0  0  0  0  0  0  0
   -0.1791   -0.4916    2.3682 C   0  0  0  0  0  0  0  0  0  0  0  0
   -1.6750   -0.2739    2.7647 C   0  0  0  0  0  0  0  0  0  0  0  0
   -2.4519   -1.3901    3.2534 C   0  0  0  0  0  0  0  0  0  0  0  0
   -3.0957   -2.3318    3.6350 C   0  0  0  0  0  0  0  0  0  0  0  0
   -1.9125    0.2432    1.3003 C   0  0  0  0  0  0  0  0  0  0  0  0
   -2.8465    1.2474    1.0419 O   0  0  0  0  0  0  0  0  0  0  0  0
    2.1193   -0.1179    0.5641 H   0  0  0  0  0  0  0  0  0  0  0  0
    1.8625    0.3105   -1.1471 H   0  0  0  0  0  0  0  0  0  0  0  0
    1.7674    1.5717    0.1115 H   0  0  0  0  0  0  0  0  0  0  0  0
   -0.1668    1.5405    1.5292 H   0  0  0  0  0  0  0  0  0  0  0  0
   -0.0192   -1.5014    1.9840 H   0  0  0  0  0  0  0  0  0  0  0  0
    0.5719   -0.2592    3.1237 H   0  0  0  0  0  0  0  0  0  0  0  0
   -1.7526    0.5741    3.4566 H   0  0  0  0  0  0  0  0  0  0  0  0
   -3.6667   -3.1596    3.9752 H   0  0  0  0  0  0  0  0  0  0  0  0
   -2.1691   -0.5992    0.6529 H   0  0  0  0  0  0  0  0  0  0  0  0
   -2.6153    2.0224    1.5649 H   0  0  0  0  0  0  0  0  0  0  0  0
  1  2  1  0
  2  3  1  0
  3  4  1  0
  4  5  1  0
  5  6  1  0
  6  7  3  0
  5  8  1  0
  8  9  1  0
  8  3  1  0
  1 10  1  0
  1 11  1  0
  1 12  1  0
  3 13  1  0
  4 14  1  0
  4 15  1  0
  5 16  1  0
  7 17  1  0
  8 18  1  0
  9 19  1  0
M  END
$$$$
