
     RDKit          3D

 19 21  0  0  0  0  0  0  0  0999 V2000
    0.7147    0.2253   -0.9833 C   0  0  0  0  0  0  0  0  0  0  0  0
    0.0309    0.0819    0.2643 O   0  0  0  0  0  0  0  0  0  0  0  0
    1.4309    0.3686    0.2932 C   0  0  0  0  0  0  0  0  0  0  0  0
    1.8320    1.6964    0.8427 C   0  0  0  0  0  0  0  0  0  0  0  0
    1.3034    2.1645    2.1776 C   0  0  0  0  0  0  0  0  0  0  0  0
    0.8948    2.8796    0.9134 C   0  0  0  0  0  0  0  0  0  0  0  0
    1.7333    4.0848    0.5338 C   0  0  0  0  0  0  0  0  0  0  0  0
    3.0894    3.6800    0.7171 O   0  0  0  0  0  0  0  0  0  0  0  0
    3.1791    2.2865    0.4431 C   0  0  0  0  0  0  0  0  0  0  0  0
    0.8189   -0.6892   -1.5650 H   0  0  0  0  0  0  0  0  0  0  0  0
    0.4584    1.1171   -1.5528 H   0  0  0  0  0  0  0  0  0  0  0  0
    2.0403   -0.4764    0.6211 H   0  0  0  0  0  0  0  0  0  0  0  0
    0.5500    1.5410    2.6454 H   0  0  0  0  0  0  0  0  0  0  0  0
    1.9862    2.6643    2.8576 H   0  0  0  0  0  0  0  0  0  0  0  0
   -0.1287    2.8013    0.5681 H   0  0  0  0  0  0  0  0  0  0  0  0
    1.5401    4.3701   -0.5134 H   0  0  0  0  0  0  0  0  0  0  0  0
    1.5731    4.9650    1.1652 H   0  0  0  0  0  0  0  0  0  0  0  0
    3.3642    2.0974   -0.6280 H   0  0  0  0  0  0  0  0  0  0  0  0
    4.0303    1.8990    1.0133 H   0  0  0  0  0  0  0  0  0  0  0  0
  1  2  1  0
  2  3  1  0
  3  4  1  0
  4  5  1  0
  5  6  1  0
  6  7  1  0
  7  8  1  0
  8  9  1  0
  3  1  1  0
  6  4  1  0
  9  4  1  0
  1 10  1  0
  1 11  1  0
  3 12  1  0
  5 13  1  0
  5 14  1  0
  6 15  1  0
  7 16  1  0
  7 17  1  0
  9 18  1  0
  9 19  1  0
M  END
$$$$
