
     RDKit          3D

 19 21  0  0  0  0  0  0  0  0999 V2000
    1.1414   -0.5805   -1.0734 C   0  0  0  0  0  0  0  0  0  0  0  0
    1.0665    0.1992    0.2402 C   0  0  0  0  0  0  0  0  0  0  0  0
    1.7752   -0.5028    1.3950 C   0  0  0  0  0  0  0  0  0  0  0  0
    1.8493    0.2360    2.7158 C   0  0  0  0  0  0  0  0  0  0  0  0
    1.5517    1.6278    2.5418 O   0  0  0  0  0  0  0  0  0  0  0  0
    2.5599    1.6718    1.4685 C   0  0  0  0  0  0  0  0  0  0  0  0
    3.0353    0.2479    1.8026 C   0  0  0  0  0  0  0  0  0  0  0  0
    1.7704    1.5994    0.1613 C   0  0  0  0  0  0  0  0  0  0  0  0
    0.8862    2.6879    0.0107 O   0  0  0  0  0  0  0  0  0  0  0  0
    0.6066   -1.5339   -1.0069 H   0  0  0  0  0  0  0  0  0  0  0  0
    0.6964   -0.0017   -1.8894 H   0  0  0  0  0  0  0  0  0  0  0  0
    2.1811   -0.7990   -1.3434 H   0  0  0  0  0  0  0  0  0  0  0  0
    0.0133    0.3771    0.4857 H   0  0  0  0  0  0  0  0  0  0  0  0
    1.7827   -1.5867    1.4509 H   0  0  0  0  0  0  0  0  0  0  0  0
    1.6743   -0.1998    3.6922 H   0  0  0  0  0  0  0  0  0  0  0  0
    3.2287    2.5250    1.5860 H   0  0  0  0  0  0  0  0  0  0  0  0
    4.0411   -0.1342    1.9001 H   0  0  0  0  0  0  0  0  0  0  0  0
    2.4504    1.6337   -0.6987 H   0  0  0  0  0  0  0  0  0  0  0  0
    0.3993    2.7418    0.8442 H   0  0  0  0  0  0  0  0  0  0  0  0
  1  2  1  0
  2  3  1  0
  3  4  1  0
  4  5  1  0
  5  6  1  0
  6  7  1  0
  6  8  1  0
  8  9  1  0
  8  2  1  0
  7  3  1  0
  7  4  1  0
  1 10  1  0
  1 11  1  0
  1 12  1  0
  2 13  1  0
  3 14  1  0
  4 15  1  0
  6 16  1  0
  7 17  1  0
  8 18  1  0
  9 19  1  0
M  END
$$$$
