gdb 2859	2.2939937	1.9182952	1.4637387	1.1325	73.04	-0.24626	0.07579	0.32205	967.8632	0.158578	-422.543062	-422.535316	-422.534372	-422.574865	30.99
 OpenBabel02181911413D

 19 21  0  0  1  0  0  0  0  0999 V2000
   -0.7653   -0.3054    3.2477 O   0  0  0  0  0  0  0  0  0  0  0  0
   -0.8763    0.6349    2.1869 C   0  0  2  0  0  0  0  0  0  0  0  0
   -2.2051    1.3760    2.1471 C   0  0  2  0  0  0  0  0  0  0  0  0
   -3.4768    0.5659    1.8870 C   0  0  2  0  0  0  0  0  0  0  0  0
   -3.1626   -0.7572    1.1807 C   0  0  0  0  0  0  0  0  0  0  0  0
   -2.1994    0.0254    0.2338 C   0  0  1  0  0  0  0  0  0  0  0  0
   -2.8052    1.3555    0.7749 C   0  0  2  0  0  0  0  0  0  0  0  0
   -0.7695   -0.0051    0.7631 C   0  0  1  0  0  0  0  0  0  0  0  0
    0.0107    0.7934   -0.1143 O   0  0  0  0  0  0  0  0  0  0  0  0
   -1.6583   -0.5320    3.5241 H   0  0  0  0  0  0  0  0  0  0  0  0
   -0.0441    1.3396    2.3097 H   0  0  0  0  0  0  0  0  0  0  0  0
   -2.3406    2.2563    2.7656 H   0  0  0  0  0  0  0  0  0  0  0  0
   -4.3876    0.7976    2.4269 H   0  0  0  0  0  0  0  0  0  0  0  0
   -2.7356   -1.5819    1.7634 H   0  0  0  0  0  0  0  0  0  0  0  0
   -4.0351   -1.1275    0.6371 H   0  0  0  0  0  0  0  0  0  0  0  0
   -2.2746   -0.1902   -0.8308 H   0  0  0  0  0  0  0  0  0  0  0  0
   -3.1417    2.2190    0.2184 H   0  0  0  0  0  0  0  0  0  0  0  0
   -0.3703   -1.0262    0.8446 H   0  0  0  0  0  0  0  0  0  0  0  0
    0.9060    0.8355    0.2375 H   0  0  0  0  0  0  0  0  0  0  0  0
  1 10  1  0  0  0  0
  2 11  1  1  0  0  0
  2  1  1  0  0  0  0
  3  2  1  0  0  0  0
  3 12  1  1  0  0  0
  4  3  1  0  0  0  0
  4 13  1  1  0  0  0
  5 14  1  0  0  0  0
  5  4  1  0  0  0  0
  6 16  1  6  0  0  0
  6  8  1  0  0  0  0
  6  7  1  0  0  0  0
  6  5  1  0  0  0  0
  7 17  1  6  0  0  0
  7  4  1  0  0  0  0
  7  3  1  0  0  0  0
  8 18  1  1  0  0  0
  8  2  1  0  0  0  0
  9 19  1  0  0  0  0
  9  8  1  0  0  0  0
 15  5  1  0  0  0  0
M TOR 0 0 1 2 3
M TOR 1 0 1 2 6
M TOR 2 0 1 2 11
M TOR 3 0 1 7 5
M TOR 4 0 1 7 8
M TOR 5 0 1 7 17
M TOR 6 1 2 3 4
M TOR 7 1 2 3 6
M TOR 8 1 2 3 12
M TOR 9 1 2 6 5
M TOR 10 1 2 6 16
M TOR 11 1 7 5 4
M TOR 12 1 7 5 6
M TOR 13 1 7 5 15
M TOR 14 1 7 8 18
M TOR 15 2 1 0 9
M TOR 16 2 1 7 5
M TOR 17 2 1 7 8
M TOR 18 2 1 7 17
M TOR 19 2 3 4 5
M TOR 20 2 3 4 13
M TOR 21 2 3 4 14
M TOR 22 2 3 6 5
M TOR 23 2 3 6 16
M TOR 24 2 6 3 4
M TOR 25 2 6 3 12
M TOR 26 2 6 5 4
M TOR 27 2 6 5 7
M TOR 28 2 6 5 15
M TOR 29 3 2 1 7
M TOR 30 3 2 1 10
M TOR 31 3 4 5 6
M TOR 32 3 4 5 7
M TOR 33 3 4 5 15
M TOR 34 3 6 2 11
M TOR 35 3 6 5 7
M TOR 36 3 6 5 15
M TOR 37 4 3 2 11
M TOR 38 4 3 6 16
M TOR 39 4 5 6 16
M TOR 40 4 5 7 8
M TOR 41 4 5 7 17
M TOR 42 5 4 3 12
M TOR 43 5 6 2 11
M TOR 44 5 6 3 12
M TOR 45 5 7 1 10
M TOR 46 5 7 8 18
M TOR 47 6 2 1 7
M TOR 48 6 2 1 10
M TOR 49 6 3 4 13
M TOR 50 6 3 4 14
M TOR 51 6 5 4 13
M TOR 52 6 5 4 14
M TOR 53 6 5 7 8
M TOR 54 6 5 7 17
M TOR 55 7 1 0 9
M TOR 56 7 1 2 11
M TOR 57 7 5 4 13
M TOR 58 7 5 4 14
M TOR 59 7 5 6 16
M TOR 60 8 7 1 10
M TOR 61 8 7 5 15
M  END
$$$$
