
     RDKit          3D

 19 21  0  0  0  0  0  0  0  0999 V2000
    0.5571    0.8108   -0.7348 C   0  0  0  0  0  0  0  0  0  0  0  0
    0.0558   -0.1269    0.2230 O   0  0  0  0  0  0  0  0  0  0  0  0
    1.4681    0.1523    0.2091 C   0  0  0  0  0  0  0  0  0  0  0  0
    2.0175    0.8730    1.4227 C   0  0  0  0  0  0  0  0  0  0  0  0
    2.3301   -0.1411    2.5330 C   0  0  0  0  0  0  0  0  0  0  0  0
    3.4062   -1.1565    2.1068 C   0  0  0  0  0  0  0  0  0  0  0  0
    3.2351   -1.6547    0.6809 C   0  0  0  0  0  0  0  0  0  0  0  0
    3.6943   -0.7746   -0.3575 O   0  0  0  0  0  0  0  0  0  0  0  0
    2.2892   -1.0146   -0.2522 C   0  0  0  0  0  0  0  0  0  0  0  0
    0.5196    0.4841   -1.7736 H   0  0  0  0  0  0  0  0  0  0  0  0
    0.2727    1.8487   -0.5652 H   0  0  0  0  0  0  0  0  0  0  0  0
    2.9255    1.4159    1.1361 H   0  0  0  0  0  0  0  0  0  0  0  0
    1.2790    1.6050    1.7620 H   0  0  0  0  0  0  0  0  0  0  0  0
    2.6492    0.3766    3.4430 H   0  0  0  0  0  0  0  0  0  0  0  0
    1.4041   -0.6740    2.7807 H   0  0  0  0  0  0  0  0  0  0  0  0
    4.4047   -0.7085    2.1821 H   0  0  0  0  0  0  0  0  0  0  0  0
    3.3973   -2.0141    2.7879 H   0  0  0  0  0  0  0  0  0  0  0  0
    3.4922   -2.6984    0.5002 H   0  0  0  0  0  0  0  0  0  0  0  0
    1.8494   -1.5976   -1.0615 H   0  0  0  0  0  0  0  0  0  0  0  0
  1  2  1  0
  2  3  1  0
  3  4  1  0
  4  5  1  0
  5  6  1  0
  6  7  1  0
  7  8  1  0
  8  9  1  0
  3  1  1  0
  9  3  1  0
  9  7  1  0
  1 10  1  0
  1 11  1  0
  4 12  1  0
  4 13  1  0
  5 14  1  0
  5 15  1  0
  6 16  1  0
  6 17  1  0
  7 18  1  0
  9 19  1  0
M  END
$$$$
