gdb 767	2.1556624	1.9754336	1.2297877	3.2869	75.45	-0.24164	-0.01521	0.22643	1047.5512	0.158291	-422.561203	-422.55336	-422.552416	-422.593465	30.514
 OpenBabel02181911403D

 19 20  0  0  1  0  0  0  0  0999 V2000
    0.0637   -1.1649    2.6242 O   0  0  0  0  0  0  0  0  0  0  0  0
    0.4087   -1.5235    1.5235 C   0  0  0  0  0  0  0  0  0  0  0  0
   -0.4546   -2.4299    0.6570 C   0  0  0  0  0  0  0  0  0  0  0  0
   -1.3474   -1.5715   -0.2705 C   0  0  0  0  0  0  0  0  0  0  0  0
   -0.5976   -0.6645   -1.2492 C   0  0  0  0  0  0  0  0  0  0  0  0
    0.1854    0.3364   -0.5977 O   0  0  0  0  0  0  0  0  0  0  0  0
    1.4820   -0.0765   -0.2947 C   0  0  1  0  0  0  0  0  0  0  0  0
    2.0693    0.4049    0.9975 C   0  0  0  0  0  0  0  0  0  0  0  0
    1.6748   -1.0411    0.8546 C   0  0  1  0  0  0  0  0  0  0  0  0
    0.1776   -3.0912    0.0521 H   0  0  0  0  0  0  0  0  0  0  0  0
   -1.0862   -3.0406    1.3076 H   0  0  0  0  0  0  0  0  0  0  0  0
   -1.9935   -2.2388   -0.8538 H   0  0  0  0  0  0  0  0  0  0  0  0
   -2.0026   -0.9492    0.3492 H   0  0  0  0  0  0  0  0  0  0  0  0
    0.0358   -1.2597   -1.9244 H   0  0  0  0  0  0  0  0  0  0  0  0
   -1.3223   -0.1238   -1.8666 H   0  0  0  0  0  0  0  0  0  0  0  0
    2.1348   -0.1730   -1.1632 H   0  0  0  0  0  0  0  0  0  0  0  0
    3.1210    0.6664    1.0202 H   0  0  0  0  0  0  0  0  0  0  0  0
    1.4282    1.0093    1.6293 H   0  0  0  0  0  0  0  0  0  0  0  0
    2.4429   -1.8024    0.7428 H   0  0  0  0  0  0  0  0  0  0  0  0
  2  1  2  0  0  0  0
  3 11  1  0  0  0  0
  3  2  1  0  0  0  0
  4 13  1  0  0  0  0
  4  3  1  0  0  0  0
  5  6  1  0  0  0  0
  5  4  1  0  0  0  0
  6  7  1  0  0  0  0
  7 16  1  6  0  0  0
  7  9  1  0  0  0  0
  7  8  1  0  0  0  0
  8 17  1  0  0  0  0
  8 18  1  0  0  0  0
  9 19  1  6  0  0  0
  9  8  1  0  0  0  0
  9  2  1  0  0  0  0
 10  3  1  0  0  0  0
 12  4  1  0  0  0  0
 14  5  1  0  0  0  0
 15  5  1  0  0  0  0
M TOR 0 0 1 2 3
M TOR 1 0 1 2 9
M TOR 2 0 1 2 10
M TOR 3 0 1 8 6
M TOR 4 0 1 8 7
M TOR 5 0 1 8 18
M TOR 6 1 2 3 4
M TOR 7 1 2 3 11
M TOR 8 1 2 3 12
M TOR 9 1 8 6 5
M TOR 10 1 8 6 7
M TOR 11 1 8 6 15
M TOR 12 1 8 7 16
M TOR 13 1 8 7 17
M TOR 14 2 1 8 6
M TOR 15 2 1 8 7
M TOR 16 2 1 8 18
M TOR 17 2 3 4 5
M TOR 18 2 3 4 13
M TOR 19 2 3 4 14
M TOR 20 3 2 1 8
M TOR 21 3 4 5 6
M TOR 22 4 3 2 9
M TOR 23 4 3 2 10
M TOR 24 4 5 6 7
M TOR 25 4 5 6 8
M TOR 26 4 5 6 15
M TOR 27 5 4 3 11
M TOR 28 5 4 3 12
M TOR 29 5 6 7 8
M TOR 30 5 6 7 16
M TOR 31 5 6 7 17
M TOR 32 5 6 8 18
M TOR 33 6 5 4 13
M TOR 34 6 5 4 14
M TOR 35 6 7 8 18
M TOR 36 6 8 7 16
M TOR 37 6 8 7 17
M TOR 38 7 8 6 15
M TOR 39 8 1 2 9
M TOR 40 8 1 2 10
M  END
$$$$
