gdb 3307	2.3823551	1.6373471	1.161575	2.6323	76.55	-0.23996	-0.01985	0.22011	1108.6705	0.156655	-422.583778	-422.575056	-422.574112	-422.616761	33.117
 OpenBabel02181911413D

 19 20  0  0  1  0  0  0  0  0999 V2000
   -2.1050   -2.7397   -1.6824 C   0  0  0  0  0  0  0  0  0  0  0  0
   -1.7071   -1.3434   -1.2569 C   0  0  1  0  0  0  0  0  0  0  0  0
   -2.3639   -0.7102   -0.0589 C   0  0  2  0  0  0  0  0  0  0  0  0
   -2.3455    0.8190    0.0046 C   0  0  0  0  0  0  0  0  0  0  0  0
   -0.8645    1.2295   -0.1930 C   0  0  0  0  0  0  0  0  0  0  0  0
   -0.0700   -0.0119    0.2038 C   0  0  0  0  0  0  0  0  0  0  0  0
    1.0427   -0.0620    0.6810 O   0  0  0  0  0  0  0  0  0  0  0  0
   -0.9306   -1.2145    0.0511 C   0  0  2  0  0  0  0  0  0  0  0  0
   -0.5217   -2.3429    0.7359 O   0  0  0  0  0  0  0  0  0  0  0  0
   -2.3312   -3.3673   -0.8174 H   0  0  0  0  0  0  0  0  0  0  0  0
   -2.9881   -2.7083   -2.3293 H   0  0  0  0  0  0  0  0  0  0  0  0
   -1.2958   -3.2251   -2.2370 H   0  0  0  0  0  0  0  0  0  0  0  0
   -1.4267   -0.6839   -2.0764 H   0  0  0  0  0  0  0  0  0  0  0  0
   -3.1650   -1.2548    0.4292 H   0  0  0  0  0  0  0  0  0  0  0  0
   -3.0062    1.2694   -0.7435 H   0  0  0  0  0  0  0  0  0  0  0  0
   -2.6929    1.1505    0.9885 H   0  0  0  0  0  0  0  0  0  0  0  0
   -0.6392    1.4810   -1.2362 H   0  0  0  0  0  0  0  0  0  0  0  0
   -0.5575    2.0838    0.4128 H   0  0  0  0  0  0  0  0  0  0  0  0
    0.3741   -2.1318    1.0430 H   0  0  0  0  0  0  0  0  0  0  0  0
  1  2  1  0  0  0  0
  1 10  1  0  0  0  0
  2 13  1  6  0  0  0
  2  3  1  0  0  0  0
  2  8  1  0  0  0  0
  3  4  1  0  0  0  0
  3  8  1  0  0  0  0
  3 14  1  1  0  0  0
  4 16  1  0  0  0  0
  5  4  1  0  0  0  0
  5  6  1  0  0  0  0
  5 18  1  0  0  0  0
  6  7  2  0  0  0  0
  8  6  1  0  0  0  0
  8  9  1  1  0  0  0
  9 19  1  0  0  0  0
 11  1  1  0  0  0  0
 12  1  1  0  0  0  0
 15  4  1  0  0  0  0
 17  5  1  0  0  0  0
M TOR 0 0 1 2 3
M TOR 1 0 1 2 7
M TOR 2 0 1 2 13
M TOR 3 0 1 7 5
M TOR 4 0 1 7 8
M TOR 5 1 2 3 4
M TOR 6 1 2 3 14
M TOR 7 1 2 3 15
M TOR 8 1 2 7 5
M TOR 9 1 2 7 8
M TOR 10 1 7 2 3
M TOR 11 1 7 2 13
M TOR 12 1 7 5 4
M TOR 13 1 7 5 6
M TOR 14 1 7 8 18
M TOR 15 2 1 0 9
M TOR 16 2 1 0 10
M TOR 17 2 1 0 11
M TOR 18 2 3 4 5
M TOR 19 2 3 4 16
M TOR 20 2 3 4 17
M TOR 21 2 7 1 12
M TOR 22 2 7 5 4
M TOR 23 2 7 5 6
M TOR 24 2 7 8 18
M TOR 25 3 2 1 12
M TOR 26 3 2 7 5
M TOR 27 3 2 7 8
M TOR 28 3 4 5 6
M TOR 29 3 4 5 7
M TOR 30 4 3 2 7
M TOR 31 4 3 2 13
M TOR 32 4 5 7 8
M TOR 33 5 4 3 14
M TOR 34 5 4 3 15
M TOR 35 5 7 1 12
M TOR 36 5 7 2 13
M TOR 37 5 7 8 18
M TOR 38 6 5 4 16
M TOR 39 6 5 4 17
M TOR 40 6 5 7 8
M TOR 41 7 1 0 9
M TOR 42 7 1 0 10
M TOR 43 7 1 0 11
M TOR 44 7 2 3 14
M TOR 45 7 2 3 15
M TOR 46 7 5 4 16
M TOR 47 7 5 4 17
M TOR 48 8 7 1 12
M TOR 49 8 7 2 13
M  END
$$$$
