gdb 5691	3.2112029	1.2440298	1.0438236	0.4014	75.98	-0.24832	0.07478	0.3231	1207.8061	0.15557	-422.462631	-422.454248	-422.453304	-422.495872	31.644
 OpenBabel02181911423D

 19 21  0  0  1  0  0  0  0  0999 V2000
    2.3924   -1.8180    0.8959 C   0  0  0  0  0  0  0  0  0  0  0  0
    1.4677   -1.0231   -0.0360 C   0  0  0  0  0  0  0  0  0  0  0  0
    2.2194   -0.5032   -1.2356 C   0  0  2  0  0  0  0  0  0  0  0  0
    1.4321   -0.1037   -2.4034 O   0  0  0  0  0  0  0  0  0  0  0  0
    2.2695   -1.2200   -2.4930 C   0  0  1  0  0  0  0  0  0  0  0  0
    3.3341   -1.5887   -3.5410 C   0  0  2  0  0  0  0  0  0  0  0  0
    2.2038   -2.1605   -4.4348 C   0  0  0  0  0  0  0  0  0  0  0  0
    1.9668   -2.6489   -2.9825 C   0  0  1  0  0  0  0  0  0  0  0  0
    3.4231   -2.9085   -2.8654 O   0  0  0  0  0  0  0  0  0  0  0  0
    1.8388   -2.2176    1.7502 H   0  0  0  0  0  0  0  0  0  0  0  0
    2.8558   -2.6538    0.3622 H   0  0  0  0  0  0  0  0  0  0  0  0
    3.1984   -1.1879    1.2874 H   0  0  0  0  0  0  0  0  0  0  0  0
    0.6412   -1.6516   -0.3844 H   0  0  0  0  0  0  0  0  0  0  0  0
    1.0188   -0.1800    0.5030 H   0  0  0  0  0  0  0  0  0  0  0  0
    3.0324    0.1914   -1.0165 H   0  0  0  0  0  0  0  0  0  0  0  0
    4.2652   -1.0955   -3.8167 H   0  0  0  0  0  0  0  0  0  0  0  0
    1.4851   -1.4584   -4.8635 H   0  0  0  0  0  0  0  0  0  0  0  0
    2.5235   -2.9393   -5.1281 H   0  0  0  0  0  0  0  0  0  0  0  0
    1.2838   -3.4074   -2.6024 H   0  0  0  0  0  0  0  0  0  0  0  0
  1 12  1  0  0  0  0
  1 10  1  0  0  0  0
  2 14  1  0  0  0  0
  2  1  1  0  0  0  0
  3 15  1  1  0  0  0
  3  2  1  0  0  0  0
  4  3  1  0  0  0  0
  5  4  1  6  0  0  0
  5  3  1  0  0  0  0
  6 16  1  6  0  0  0
  6  9  1  0  0  0  0
  6  5  1  0  0  0  0
  7  6  1  0  0  0  0
  7  8  1  0  0  0  0
  8  9  1  0  0  0  0
  8 19  1  1  0  0  0
  8  5  1  0  0  0  0
 11  1  1  0  0  0  0
 13  2  1  0  0  0  0
 17  7  1  0  0  0  0
 18  7  1  0  0  0  0
M TOR 0 0 1 2 3
M TOR 1 0 1 2 4
M TOR 2 0 1 2 14
M TOR 3 1 2 3 4
M TOR 4 1 2 4 5
M TOR 5 1 2 4 7
M TOR 6 2 1 0 9
M TOR 7 2 1 0 10
M TOR 8 2 1 0 11
M TOR 9 2 3 4 5
M TOR 10 2 3 4 7
M TOR 11 2 4 5 6
M TOR 12 2 4 5 8
M TOR 13 2 4 5 15
M TOR 14 2 4 7 6
M TOR 15 2 4 7 8
M TOR 16 2 4 7 18
M TOR 17 3 2 1 12
M TOR 18 3 2 1 13
M TOR 19 3 4 2 14
M TOR 20 3 4 5 6
M TOR 21 3 4 5 8
M TOR 22 3 4 5 15
M TOR 23 3 4 7 6
M TOR 24 3 4 7 8
M TOR 25 3 4 7 18
M TOR 26 4 2 1 12
M TOR 27 4 2 1 13
M TOR 28 4 5 6 7
M TOR 29 4 5 6 16
M TOR 30 4 5 6 17
M TOR 31 4 5 8 7
M TOR 32 4 7 6 16
M TOR 33 4 7 6 17
M TOR 34 5 4 2 14
M TOR 35 5 4 7 18
M TOR 36 5 6 7 8
M TOR 37 5 6 7 18
M TOR 38 5 8 7 18
M TOR 39 7 4 2 14
M TOR 40 7 4 5 15
M TOR 41 7 6 5 15
M TOR 42 7 8 5 15
M TOR 43 8 5 6 16
M TOR 44 8 5 6 17
M TOR 45 8 7 6 16
M TOR 46 8 7 6 17
M  END
$$$$
