gdb 3736	2.2575072	1.7937004	1.2530435	2.7353	75.41	-0.24712	0.05792	0.30504	1055.6886	0.155983	-422.502731	-422.494298	-422.493354	-422.535953	32.493
 OpenBabel02181911413D

 19 21  0  0  1  0  0  0  0  0999 V2000
    0.1685   -0.2338    0.8464 O   0  0  0  0  0  0  0  0  0  0  0  0
   -0.9700    0.4857    0.4848 C   0  0  2  0  0  0  0  0  0  0  0  0
   -2.3044   -0.1930    0.6306 C   0  0  0  0  0  0  0  0  0  0  0  0
   -1.7277    0.0609   -0.7431 C   0  0  1  0  0  0  0  0  0  0  0  0
   -2.3164    0.9093   -1.8840 C   0  0  0  0  0  0  0  0  0  0  0  0
   -1.8300   -0.1718   -2.9063 C   0  0  0  0  0  0  0  0  0  0  0  0
   -1.2080   -0.9492   -1.7417 C   0  0  2  0  0  0  0  0  0  0  0  0
   -0.8350   -2.3540   -1.5958 C   0  0  0  0  0  0  0  0  0  0  0  0
    0.1780   -1.3417   -1.7594 O   0  0  0  0  0  0  0  0  0  0  0  0
    0.5897   -0.5387    0.0299 H   0  0  0  0  0  0  0  0  0  0  0  0
   -0.9163    1.5534    0.6987 H   0  0  0  0  0  0  0  0  0  0  0  0
   -2.2924   -1.2106    1.0072 H   0  0  0  0  0  0  0  0  0  0  0  0
   -3.1642    0.4006    0.9260 H   0  0  0  0  0  0  0  0  0  0  0  0
   -3.4003    1.0399   -1.8428 H   0  0  0  0  0  0  0  0  0  0  0  0
   -1.8500    1.8896   -2.0122 H   0  0  0  0  0  0  0  0  0  0  0  0
   -2.6319   -0.7008   -3.4266 H   0  0  0  0  0  0  0  0  0  0  0  0
   -1.0958    0.1703   -3.6385 H   0  0  0  0  0  0  0  0  0  0  0  0
   -0.8632   -2.8201   -0.6123 H   0  0  0  0  0  0  0  0  0  0  0  0
   -0.9395   -3.0341   -2.4397 H   0  0  0  0  0  0  0  0  0  0  0  0
  2  3  1  0  0  0  0
  2 11  1  1  0  0  0
  2  1  1  0  0  0  0
  3 13  1  0  0  0  0
  3 12  1  0  0  0  0
  4  5  1  6  0  0  0
  4  2  1  0  0  0  0
  4  3  1  0  0  0  0
  5 14  1  0  0  0  0
  6  5  1  0  0  0  0
  6  7  1  0  0  0  0
  7  9  1  6  0  0  0
  7  8  1  0  0  0  0
  7  4  1  0  0  0  0
  8 18  1  0  0  0  0
  9  8  1  0  0  0  0
 10  1  1  0  0  0  0
 15  5  1  0  0  0  0
 16  6  1  0  0  0  0
 17  6  1  0  0  0  0
 19  8  1  0  0  0  0
M TOR 0 0 1 2 3
M TOR 1 0 1 2 11
M TOR 2 0 1 2 12
M TOR 3 0 1 3 4
M TOR 4 0 1 3 6
M TOR 5 1 2 3 4
M TOR 6 1 2 3 6
M TOR 7 1 3 2 11
M TOR 8 1 3 2 12
M TOR 9 1 3 4 5
M TOR 10 1 3 4 13
M TOR 11 1 3 4 14
M TOR 12 1 3 6 5
M TOR 13 1 3 6 7
M TOR 14 1 3 6 8
M TOR 15 2 1 0 9
M TOR 16 2 3 1 10
M TOR 17 2 3 4 5
M TOR 18 2 3 4 13
M TOR 19 2 3 4 14
M TOR 20 2 3 6 5
M TOR 21 2 3 6 7
M TOR 22 2 3 6 8
M TOR 23 3 1 0 9
M TOR 24 3 4 5 6
M TOR 25 3 4 5 15
M TOR 26 3 4 5 16
M TOR 27 3 6 5 15
M TOR 28 3 6 5 16
M TOR 29 3 6 7 8
M TOR 30 3 6 7 17
M TOR 31 3 6 7 18
M TOR 32 4 3 1 10
M TOR 33 4 3 2 11
M TOR 34 4 3 2 12
M TOR 35 4 3 6 7
M TOR 36 4 3 6 8
M TOR 37 4 5 6 7
M TOR 38 4 5 6 8
M TOR 39 5 6 7 8
M TOR 40 5 6 7 17
M TOR 41 5 6 7 18
M TOR 42 6 3 1 10
M TOR 43 6 3 2 11
M TOR 44 6 3 2 12
M TOR 45 6 3 4 13
M TOR 46 6 3 4 14
M TOR 47 6 5 4 13
M TOR 48 6 5 4 14
M TOR 49 6 8 7 17
M TOR 50 6 8 7 18
M TOR 51 7 6 5 15
M TOR 52 7 6 5 16
M TOR 53 8 6 5 15
M TOR 54 8 6 5 16
M  END
$$$$
