
     RDKit          3D

 19 20  0  0  0  0  0  0  0  0999 V2000
    0.2205   -2.4252   -0.3126 C   0  0  0  0  0  0  0  0  0  0  0  0
   -0.8279   -1.3464   -0.0721 C   0  0  0  0  0  0  0  0  0  0  0  0
   -1.5483   -1.1436   -1.2867 O   0  0  0  0  0  0  0  0  0  0  0  0
   -2.5503   -0.1779   -1.1466 C   0  0  0  0  0  0  0  0  0  0  0  0
   -2.5243    0.9507   -2.1291 C   0  0  0  0  0  0  0  0  0  0  0  0
   -2.0535    1.1778   -0.7073 C   0  0  0  0  0  0  0  0  0  0  0  0
   -0.5650    1.2072   -0.3766 C   0  0  0  0  0  0  0  0  0  0  0  0
   -0.1832   -0.0371    0.4173 C   0  0  0  0  0  0  0  0  0  0  0  0
    0.5636   -0.0237    1.3666 O   0  0  0  0  0  0  0  0  0  0  0  0
    0.8176   -2.5588    0.5913 H   0  0  0  0  0  0  0  0  0  0  0  0
   -0.2621   -3.3695   -0.5750 H   0  0  0  0  0  0  0  0  0  0  0  0
    0.8825   -2.1353   -1.1339 H   0  0  0  0  0  0  0  0  0  0  0  0
   -1.5172   -1.6778    0.7228 H   0  0  0  0  0  0  0  0  0  0  0  0
   -3.5041   -0.5594   -0.7830 H   0  0  0  0  0  0  0  0  0  0  0  0
   -1.7720    0.9026   -2.9090 H   0  0  0  0  0  0  0  0  0  0  0  0
   -3.4708    1.3858   -2.4296 H   0  0  0  0  0  0  0  0  0  0  0  0
   -2.6923    1.7646   -0.0561 H   0  0  0  0  0  0  0  0  0  0  0  0
    0.0348    1.2055   -1.2956 H   0  0  0  0  0  0  0  0  0  0  0  0
   -0.2771    2.0897    0.1978 H   0  0  0  0  0  0  0  0  0  0  0  0
  1  2  1  0
  2  3  1  0
  3  4  1  0
  4  5  1  0
  5  6  1  0
  6  7  1  0
  7  8  1  0
  8  9  2  0
  8  2  1  0
  6  4  1  0
  1 10  1  0
  1 11  1  0
  1 12  1  0
  2 13  1  0
  4 14  1  0
  5 15  1  0
  5 16  1  0
  6 17  1  0
  7 18  1  0
  7 19  1  0
M  END
$$$$
