gdb 4129	2.4741151	1.6898558	1.3165775	2.5118	74.99	-0.24308	-0.00982	0.23326	1043.5922	0.156122	-422.563174	-422.554569	-422.553625	-422.596001	32.6
 OpenBabel02181911413D

 19 20  0  0  1  0  0  0  0  0999 V2000
   -3.3878    1.2856    1.0979 C   0  0  0  0  0  0  0  0  0  0  0  0
   -1.9706    0.7401    1.2593 C   0  0  1  0  0  0  0  0  0  0  0  0
   -1.9009   -0.8298    1.2792 C   0  0  0  0  0  0  0  0  0  0  0  0
   -0.9854   -1.0390    0.0625 C   0  0  1  0  0  0  0  0  0  0  0  0
   -1.5138   -0.0722   -0.9038 O   0  0  0  0  0  0  0  0  0  0  0  0
   -1.0597    0.9872    0.0244 C   0  0  1  0  0  0  0  0  0  0  0  0
   -0.8960    2.3525   -0.5725 C   0  0  0  0  0  0  0  0  0  0  0  0
    0.1170    0.0153    0.2836 C   0  0  0  0  0  0  0  0  0  0  0  0
    1.3039    0.0717    0.3688 O   0  0  0  0  0  0  0  0  0  0  0  0
   -4.0261    0.9439    1.9194 H   0  0  0  0  0  0  0  0  0  0  0  0
   -3.4049    2.3802    1.0981 H   0  0  0  0  0  0  0  0  0  0  0  0
   -3.8279    0.9334    0.1599 H   0  0  0  0  0  0  0  0  0  0  0  0
   -1.5067    1.1670    2.1556 H   0  0  0  0  0  0  0  0  0  0  0  0
   -1.4807   -1.2377    2.2027 H   0  0  0  0  0  0  0  0  0  0  0  0
   -2.8825   -1.2813    1.1125 H   0  0  0  0  0  0  0  0  0  0  0  0
   -0.8158   -2.0351   -0.3409 H   0  0  0  0  0  0  0  0  0  0  0  0
   -0.4783    3.0337    0.1755 H   0  0  0  0  0  0  0  0  0  0  0  0
   -0.2148    2.3210   -1.4264 H   0  0  0  0  0  0  0  0  0  0  0  0
   -1.8558    2.7577   -0.9057 H   0  0  0  0  0  0  0  0  0  0  0  0
  1 11  1  0  0  0  0
  1  2  1  0  0  0  0
  1 10  1  0  0  0  0
  2  3  1  0  0  0  0
  2 13  1  1  0  0  0
  3 14  1  0  0  0  0
  4 16  1  6  0  0  0
  4  8  1  0  0  0  0
  4  3  1  0  0  0  0
  5  6  1  0  0  0  0
  5  4  1  0  0  0  0
  6  7  1  6  0  0  0
  6  8  1  0  0  0  0
  6  2  1  0  0  0  0
  7 17  1  0  0  0  0
  8  9  2  0  0  0  0
 12  1  1  0  0  0  0
 15  3  1  0  0  0  0
 18  7  1  0  0  0  0
 19  7  1  0  0  0  0
M TOR 0 0 1 2 3
M TOR 1 0 1 2 13
M TOR 2 0 1 2 14
M TOR 3 0 1 5 4
M TOR 4 0 1 5 6
M TOR 5 0 1 5 7
M TOR 6 1 2 3 4
M TOR 7 1 2 3 7
M TOR 8 1 2 3 15
M TOR 9 1 5 4 3
M TOR 10 1 5 6 16
M TOR 11 1 5 6 17
M TOR 12 1 5 6 18
M TOR 13 1 5 7 3
M TOR 14 1 5 7 8
M TOR 15 2 1 0 9
M TOR 16 2 1 0 10
M TOR 17 2 1 0 11
M TOR 18 2 1 5 4
M TOR 19 2 1 5 6
M TOR 20 2 1 5 7
M TOR 21 2 3 4 5
M TOR 22 2 3 7 5
M TOR 23 2 3 7 8
M TOR 24 3 2 1 5
M TOR 25 3 2 1 12
M TOR 26 3 4 5 6
M TOR 27 3 4 5 7
M TOR 28 3 7 5 6
M TOR 29 4 3 2 13
M TOR 30 4 3 2 14
M TOR 31 4 3 7 8
M TOR 32 4 5 1 12
M TOR 33 4 5 6 16
M TOR 34 4 5 6 17
M TOR 35 4 5 6 18
M TOR 36 4 5 7 8
M TOR 37 5 1 0 9
M TOR 38 5 1 0 10
M TOR 39 5 1 0 11
M TOR 40 5 1 2 13
M TOR 41 5 1 2 14
M TOR 42 5 4 3 15
M TOR 43 5 7 3 15
M TOR 44 6 5 1 12
M TOR 45 6 5 7 8
M TOR 46 7 3 2 13
M TOR 47 7 3 2 14
M TOR 48 7 5 1 12
M TOR 49 7 5 6 16
M TOR 50 7 5 6 17
M TOR 51 7 5 6 18
M TOR 52 8 7 3 15
M  END
$$$$
