gdb 142	2.4870504	2.1050687	1.6669348	0.9162	73.3	-0.23036	0.0777	0.30806	897.6558	0.160943	-422.548561	-422.541911	-422.540967	-422.579243	27.512
 OpenBabel02181911403D

 19 21  0  0  1  0  0  0  0  0999 V2000
    2.2986   -0.4060   -0.8845 C   0  0  0  0  0  0  0  0  0  0  0  0
    1.1134    0.5444   -0.8068 C   0  0  2  0  0  0  0  0  0  0  0  0
    0.8921    1.3521    0.4691 C   0  0  2  0  0  0  0  0  0  0  0  0
    1.9535    1.6432    1.5260 C   0  0  0  0  0  0  0  0  0  0  0  0
    3.1950    0.9874    1.3516 O   0  0  0  0  0  0  0  0  0  0  0  0
    3.1512   -0.4152    1.5144 C   0  0  0  0  0  0  0  0  0  0  0  0
    2.2563   -1.1202    0.4855 C   0  0  1  0  0  0  0  0  0  0  0  0
    0.8821   -1.0997    0.9027 O   0  0  0  0  0  0  0  0  0  0  0  0
    0.2503   -0.0003    0.2992 C   0  0  2  0  0  0  0  0  0  0  0  0
    2.1323   -1.1171   -1.7001 H   0  0  0  0  0  0  0  0  0  0  0  0
    3.2571    0.0907   -1.0459 H   0  0  0  0  0  0  0  0  0  0  0  0
    0.6919    0.9174   -1.7330 H   0  0  0  0  0  0  0  0  0  0  0  0
    0.2051    2.1855    0.3373 H   0  0  0  0  0  0  0  0  0  0  0  0
    2.1935    2.7106    1.5009 H   0  0  0  0  0  0  0  0  0  0  0  0
    1.5437    1.4174    2.5250 H   0  0  0  0  0  0  0  0  0  0  0  0
    4.1854   -0.7560    1.3940 H   0  0  0  0  0  0  0  0  0  0  0  0
    2.8077   -0.6883    2.5244 H   0  0  0  0  0  0  0  0  0  0  0  0
    2.5486   -2.1742    0.4315 H   0  0  0  0  0  0  0  0  0  0  0  0
   -0.8249   -0.1251    0.2461 H   0  0  0  0  0  0  0  0  0  0  0  0
  1  2  1  0  0  0  0
  1  7  1  0  0  0  0
  2 12  1  6  0  0  0
  2  9  1  0  0  0  0
  2  3  1  0  0  0  0
  3 13  1  6  0  0  0
  3  4  1  0  0  0  0
  4 15  1  0  0  0  0
  5  6  1  0  0  0  0
  5  4  1  0  0  0  0
  6 17  1  0  0  0  0
  7 18  1  6  0  0  0
  7  8  1  0  0  0  0
  7  6  1  0  0  0  0
  9 19  1  6  0  0  0
  9  3  1  0  0  0  0
  9  8  1  0  0  0  0
 10  1  1  0  0  0  0
 11  1  1  0  0  0  0
 14  4  1  0  0  0  0
 16  6  1  0  0  0  0
M TOR 0 0 1 2 3
M TOR 1 0 1 2 8
M TOR 2 0 1 2 12
M TOR 3 0 1 8 7
M TOR 4 0 1 8 18
M TOR 5 0 6 5 4
M TOR 6 0 6 5 15
M TOR 7 0 6 5 16
M TOR 8 0 6 7 8
M TOR 9 1 0 6 5
M TOR 10 1 0 6 7
M TOR 11 1 0 6 17
M TOR 12 1 2 3 4
M TOR 13 1 2 3 13
M TOR 14 1 2 3 14
M TOR 15 1 2 8 7
M TOR 16 1 2 8 18
M TOR 17 1 8 2 3
M TOR 18 1 8 2 12
M TOR 19 1 8 7 6
M TOR 20 2 1 0 6
M TOR 21 2 1 0 9
M TOR 22 2 1 0 10
M TOR 23 2 3 4 5
M TOR 24 2 8 1 11
M TOR 25 2 8 7 6
M TOR 26 3 2 1 11
M TOR 27 3 2 8 7
M TOR 28 3 2 8 18
M TOR 29 3 4 5 6
M TOR 30 3 4 5 15
M TOR 31 3 4 5 16
M TOR 32 4 3 2 8
M TOR 33 4 3 2 12
M TOR 34 4 5 6 7
M TOR 35 4 5 6 17
M TOR 36 5 4 3 13
M TOR 37 5 4 3 14
M TOR 38 5 6 0 9
M TOR 39 5 6 0 10
M TOR 40 5 6 7 8
M TOR 41 6 0 1 8
M TOR 42 6 0 1 11
M TOR 43 6 7 8 18
M TOR 44 7 6 0 9
M TOR 45 7 6 0 10
M TOR 46 7 6 5 15
M TOR 47 7 6 5 16
M TOR 48 7 8 1 11
M TOR 49 7 8 2 12
M TOR 50 8 1 0 9
M TOR 51 8 1 0 10
M TOR 52 8 2 3 13
M TOR 53 8 2 3 14
M TOR 54 8 7 6 17
M  END
$$$$
