gdb 4633	3.4807153	0.6552312	0.5823495	2.0605	81.6	-0.24435	0.01345	0.25780000000000003	1950.5777	0.154016	-422.559065	-422.548038	-422.547094	-422.598696	36.268
 OpenBabel02181911413D

 19 18  0  0  0  0  0  0  0  0999 V2000
    0.1240    0.0096   -0.6265 C   0  0  0  0  0  0  0  0  0  0  0  0
    1.5685   -0.0050   -0.0938 C   0  0  0  0  0  0  0  0  0  0  0  0
    2.0602    1.3211    0.2652 C   0  0  0  0  0  0  0  0  0  0  0  0
    2.4460    2.4257    0.5475 C   0  0  0  0  0  0  0  0  0  0  0  0
    2.9212    3.7505    0.9199 C   0  0  0  0  0  0  0  0  0  0  0  0
    4.0301    4.3322    0.0430 C   0  0  0  0  0  0  0  0  0  0  0  0
    4.9284    5.0143    0.4645 O   0  0  0  0  0  0  0  0  0  0  0  0
    3.8534    4.0330   -1.2529 O   0  0  0  0  0  0  0  0  0  0  0  0
    4.8342    4.5787   -2.1449 C   0  0  0  0  0  0  0  0  0  0  0  0
   -0.5627    0.4105    0.1240 H   0  0  0  0  0  0  0  0  0  0  0  0
    0.0468    0.6333   -1.5212 H   0  0  0  0  0  0  0  0  0  0  0  0
   -0.1986   -1.0040   -0.8828 H   0  0  0  0  0  0  0  0  0  0  0  0
    1.6301   -0.6653    0.7808 H   0  0  0  0  0  0  0  0  0  0  0  0
    2.2328   -0.4448   -0.8488 H   0  0  0  0  0  0  0  0  0  0  0  0
    2.0922    4.4721    0.8872 H   0  0  0  0  0  0  0  0  0  0  0  0
    3.3021    3.7677    1.9453 H   0  0  0  0  0  0  0  0  0  0  0  0
    4.8329    5.6707   -2.0978 H   0  0  0  0  0  0  0  0  0  0  0  0
    5.8324    4.2175   -1.8858 H   0  0  0  0  0  0  0  0  0  0  0  0
    4.5501    4.2379   -3.1404 H   0  0  0  0  0  0  0  0  0  0  0  0
  1  2  1  0  0  0  0
  1 10  1  0  0  0  0
  2  3  1  0  0  0  0
  2 13  1  0  0  0  0
  3  4  3  0  0  0  0
  4  5  1  0  0  0  0
  5 16  1  0  0  0  0
  6  7  2  0  0  0  0
  6  5  1  0  0  0  0
  8  6  1  0  0  0  0
  9 17  1  0  0  0  0
  9 18  1  0  0  0  0
  9  8  1  0  0  0  0
 11  1  1  0  0  0  0
 12  1  1  0  0  0  0
 14  2  1  0  0  0  0
 15  5  1  0  0  0  0
 19  9  1  0  0  0  0
M TOR 0 0 1 2 3
M TOR 1 1 2 3 4
M TOR 2 2 1 0 9
M TOR 3 2 1 0 10
M TOR 4 2 1 0 11
M TOR 5 2 3 4 5
M TOR 6 2 3 4 14
M TOR 7 2 3 4 15
M TOR 8 3 2 1 12
M TOR 9 3 2 1 13
M TOR 10 3 4 5 6
M TOR 11 3 4 5 7
M TOR 12 4 5 7 8
M TOR 13 5 7 8 16
M TOR 14 5 7 8 17
M TOR 15 5 7 8 18
M TOR 16 6 5 4 14
M TOR 17 6 5 4 15
M TOR 18 6 5 7 8
M TOR 19 7 5 4 14
M TOR 20 7 5 4 15
M  END
$$$$
