gdb 1994	2.8278566	1.8265615	1.5520258	1.3051	72.8	-0.24389	0.08603	0.32992	935.2604	0.158982	-422.552411	-422.545273	-422.544329	-422.583471	29.195
 OpenBabel02181911403D

 19 21  0  0  1  0  0  0  0  0999 V2000
   -0.0248    0.0925   -0.0221 C   0  0  0  0  0  0  0  0  0  0  0  0
    1.4697    0.0623    0.1180 C   0  0  1  0  0  0  0  0  0  0  0  0
    2.2236    0.2434   -1.0950 O   0  0  0  0  0  0  0  0  0  0  0  0
    2.3859    1.2034   -0.0398 C   0  0  2  0  0  0  0  0  0  0  0  0
    3.5354    0.9056    0.9333 C   0  0  2  0  0  0  0  0  0  0  0  0
    3.6559   -0.6209    0.8478 C   0  0  0  0  0  0  0  0  0  0  0  0
    2.1605   -0.8247    1.1745 C   0  0  1  0  0  0  0  0  0  0  0  0
    2.0864    0.0052    2.4805 C   0  0  0  0  0  0  0  0  0  0  0  0
    2.9792    1.1148    2.2488 O   0  0  0  0  0  0  0  0  0  0  0  0
   -0.5121    0.2390    0.9471 H   0  0  0  0  0  0  0  0  0  0  0  0
   -0.3332    0.8983   -0.6925 H   0  0  0  0  0  0  0  0  0  0  0  0
   -0.3890   -0.8537   -0.4381 H   0  0  0  0  0  0  0  0  0  0  0  0
    2.0618    2.2185   -0.2477 H   0  0  0  0  0  0  0  0  0  0  0  0
    4.4396    1.5066    0.8451 H   0  0  0  0  0  0  0  0  0  0  0  0
    3.9406   -0.9898   -0.1347 H   0  0  0  0  0  0  0  0  0  0  0  0
    4.3202   -1.0164    1.6185 H   0  0  0  0  0  0  0  0  0  0  0  0
    1.7964   -1.8490    1.2640 H   0  0  0  0  0  0  0  0  0  0  0  0
    1.0818    0.3843    2.6993 H   0  0  0  0  0  0  0  0  0  0  0  0
    2.4357   -0.5689    3.3477 H   0  0  0  0  0  0  0  0  0  0  0  0
  1 10  1  0  0  0  0
  2  1  1  1  0  0  0
  2  7  1  0  0  0  0
  3  4  1  0  0  0  0
  3  2  1  0  0  0  0
  4 13  1  6  0  0  0
  4  2  1  0  0  0  0
  4  5  1  0  0  0  0
  5 14  1  6  0  0  0
  5  9  1  0  0  0  0
  6  5  1  0  0  0  0
  6  7  1  0  0  0  0
  6 16  1  0  0  0  0
  7 17  1  1  0  0  0
  7  8  1  0  0  0  0
  8 18  1  0  0  0  0
  8 19  1  0  0  0  0
  9  8  1  0  0  0  0
 11  1  1  0  0  0  0
 12  1  1  0  0  0  0
 15  6  1  0  0  0  0
M TOR 0 0 1 2 3
M TOR 1 0 1 3 4
M TOR 2 0 1 3 12
M TOR 3 0 1 6 5
M TOR 4 0 1 6 7
M TOR 5 0 1 6 16
M TOR 6 1 2 3 4
M TOR 7 1 2 3 12
M TOR 8 1 3 4 5
M TOR 9 1 3 4 8
M TOR 10 1 3 4 13
M TOR 11 1 6 5 4
M TOR 12 1 6 5 14
M TOR 13 1 6 5 15
M TOR 14 1 6 7 8
M TOR 15 1 6 7 17
M TOR 16 1 6 7 18
M TOR 17 2 1 0 9
M TOR 18 2 1 0 10
M TOR 19 2 1 0 11
M TOR 20 2 1 6 5
M TOR 21 2 1 6 7
M TOR 22 2 1 6 16
M TOR 23 2 3 1 6
M TOR 24 2 3 4 5
M TOR 25 2 3 4 8
M TOR 26 2 3 4 13
M TOR 27 3 1 0 9
M TOR 28 3 1 0 10
M TOR 29 3 1 0 11
M TOR 30 3 1 6 5
M TOR 31 3 1 6 7
M TOR 32 3 1 6 16
M TOR 33 3 4 5 6
M TOR 34 3 4 5 14
M TOR 35 3 4 5 15
M TOR 36 3 4 8 7
M TOR 37 4 3 1 6
M TOR 38 4 5 6 7
M TOR 39 4 5 6 16
M TOR 40 4 8 7 6
M TOR 41 4 8 7 17
M TOR 42 4 8 7 18
M TOR 43 5 4 3 12
M TOR 44 5 4 8 7
M TOR 45 5 6 7 8
M TOR 46 5 6 7 17
M TOR 47 5 6 7 18
M TOR 48 6 1 0 9
M TOR 49 6 1 0 10
M TOR 50 6 1 0 11
M TOR 51 6 1 3 12
M TOR 52 6 5 4 8
M TOR 53 6 5 4 13
M TOR 54 7 6 5 14
M TOR 55 7 6 5 15
M TOR 56 7 8 4 13
M TOR 57 8 4 3 12
M TOR 58 8 4 5 14
M TOR 59 8 4 5 15
M TOR 60 8 7 6 16
M  END
$$$$
