
     RDKit          3D

 19 20  0  0  0  0  0  0  0  0999 V2000
   -0.2218    1.4391    0.0895 O   0  0  0  0  0  0  0  0  0  0  0  0
   -0.0068    0.0543    0.0284 C   0  0  0  0  0  0  0  0  0  0  0  0
    0.2668   -0.6399   -1.3728 C   0  0  0  0  0  0  0  0  0  0  0  0
   -0.7107   -1.7874   -0.9294 C   0  0  0  0  0  0  0  0  0  0  0  0
   -0.0157   -2.8589   -0.2992 O   0  0  0  0  0  0  0  0  0  0  0  0
   -1.9703   -2.2334   -1.7063 C   0  0  0  0  0  0  0  0  0  0  0  0
   -3.1503   -1.8642   -0.7489 C   0  0  0  0  0  0  0  0  0  0  0  0
   -2.5674   -0.7563    0.1253 C   0  0  0  0  0  0  0  0  0  0  0  0
   -1.2421   -0.7996    0.0747 C   0  0  0  0  0  0  0  0  0  0  0  0
    0.6286    1.8733    0.2050 H   0  0  0  0  0  0  0  0  0  0  0  0
    0.7506   -0.2746    0.7528 H   0  0  0  0  0  0  0  0  0  0  0  0
   -0.1414   -0.0252   -2.1781 H   0  0  0  0  0  0  0  0  0  0  0  0
    1.2994   -0.9296   -1.5897 H   0  0  0  0  0  0  0  0  0  0  0  0
    0.4694   -3.3305   -0.9851 H   0  0  0  0  0  0  0  0  0  0  0  0
   -2.0696   -1.6714   -2.6406 H   0  0  0  0  0  0  0  0  0  0  0  0
   -1.9398   -3.2983   -1.9548 H   0  0  0  0  0  0  0  0  0  0  0  0
   -4.0285   -1.5151   -1.3026 H   0  0  0  0  0  0  0  0  0  0  0  0
   -3.4816   -2.7270   -0.1561 H   0  0  0  0  0  0  0  0  0  0  0  0
   -3.1769   -0.0072    0.6168 H   0  0  0  0  0  0  0  0  0  0  0  0
  1  2  1  0
  2  3  1  0
  3  4  1  0
  4  5  1  0
  4  6  1  0
  6  7  1  0
  7  8  1  0
  8  9  2  0
  9  2  1  0
  9  4  1  0
  1 10  1  0
  2 11  1  0
  3 12  1  0
  3 13  1  0
  5 14  1  0
  6 15  1  0
  6 16  1  0
  7 17  1  0
  7 18  1  0
  8 19  1  0
M  END
$$$$
