
     RDKit          3D

 19 21  0  0  0  0  0  0  0  0999 V2000
    1.5805    0.8361    0.2021 O   0  0  0  0  0  0  0  0  0  0  0  0
    0.5357   -0.0497    0.5873 C   0  0  0  0  0  0  0  0  0  0  0  0
   -0.3664    0.5512    1.6617 C   0  0  0  0  0  0  0  0  0  0  0  0
   -1.4089   -0.4063    2.2879 C   0  0  0  0  0  0  0  0  0  0  0  0
   -2.1980    0.5570    3.2123 C   0  0  0  0  0  0  0  0  0  0  0  0
   -0.8872    0.6162    4.0135 C   0  0  0  0  0  0  0  0  0  0  0  0
   -0.5450   -0.8240    3.5801 C   0  0  0  0  0  0  0  0  0  0  0  0
    0.8355   -0.5180    3.3556 O   0  0  0  0  0  0  0  0  0  0  0  0
    0.3277    0.8115    3.0197 C   0  0  0  0  0  0  0  0  0  0  0  0
    2.2579    0.7949    0.8838 H   0  0  0  0  0  0  0  0  0  0  0  0
   -0.0543   -0.2333   -0.3175 H   0  0  0  0  0  0  0  0  0  0  0  0
    0.9340   -1.0121    0.9292 H   0  0  0  0  0  0  0  0  0  0  0  0
   -0.8379    1.4588    1.2706 H   0  0  0  0  0  0  0  0  0  0  0  0
   -1.9039   -1.1339    1.6464 H   0  0  0  0  0  0  0  0  0  0  0  0
   -2.6046    1.4686    2.7660 H   0  0  0  0  0  0  0  0  0  0  0  0
   -2.9771    0.0511    3.7902 H   0  0  0  0  0  0  0  0  0  0  0  0
   -0.7848    0.9867    5.0318 H   0  0  0  0  0  0  0  0  0  0  0  0
   -0.7485   -1.7490    4.1169 H   0  0  0  0  0  0  0  0  0  0  0  0
    1.0694    1.6031    3.1181 H   0  0  0  0  0  0  0  0  0  0  0  0
  1  2  1  0
  2  3  1  0
  3  4  1  0
  4  5  1  0
  5  6  1  0
  6  7  1  0
  7  8  1  0
  8  9  1  0
  9  3  1  0
  7  4  1  0
  9  6  1  0
  1 10  1  0
  2 11  1  0
  2 12  1  0
  3 13  1  0
  4 14  1  0
  5 15  1  0
  5 16  1  0
  6 17  1  0
  7 18  1  0
  9 19  1  0
M  END
$$$$
