gdb 2613	2.2836314	1.5426808	0.9690071	2.7517	79.3	-0.24024	-0.02433	0.21591000000000002	1224.0878	0.15472	-422.599493	-422.58987	-422.588926	-422.633793	35.005
 OpenBabel02181911413D

 19 19  0  0  1  0  0  0  0  0999 V2000
   -1.1992    2.2253   -0.9723 C   0  0  0  0  0  0  0  0  0  0  0  0
   -1.0491    0.8094   -0.5121 C   0  0  0  0  0  0  0  0  0  0  0  0
    0.0691    0.1780   -0.1141 C   0  0  0  0  0  0  0  0  0  0  0  0
    1.4632    0.7031    0.0072 C   0  0  0  0  0  0  0  0  0  0  0  0
   -0.2029   -1.2800    0.1949 C   0  0  1  0  0  0  0  0  0  0  0  0
    0.4110   -1.7625    1.3678 O   0  0  0  0  0  0  0  0  0  0  0  0
   -1.7302   -1.2951    0.3024 C   0  0  0  0  0  0  0  0  0  0  0  0
   -2.3355   -2.0678    1.0018 O   0  0  0  0  0  0  0  0  0  0  0  0
   -2.2664   -0.0968   -0.4663 C   0  0  0  0  0  0  0  0  0  0  0  0
   -1.9356    2.7588   -0.3576 H   0  0  0  0  0  0  0  0  0  0  0  0
   -0.2598    2.7805   -0.9327 H   0  0  0  0  0  0  0  0  0  0  0  0
   -1.5708    2.2655   -2.0046 H   0  0  0  0  0  0  0  0  0  0  0  0
    1.8570    0.4793    1.0043 H   0  0  0  0  0  0  0  0  0  0  0  0
    2.1320    0.2094   -0.7101 H   0  0  0  0  0  0  0  0  0  0  0  0
    1.5247    1.7807   -0.1583 H   0  0  0  0  0  0  0  0  0  0  0  0
    0.0946   -1.9081   -0.6684 H   0  0  0  0  0  0  0  0  0  0  0  0
   -0.2578   -2.3079    1.8067 H   0  0  0  0  0  0  0  0  0  0  0  0
   -2.6047   -0.4045   -1.4671 H   0  0  0  0  0  0  0  0  0  0  0  0
   -3.1371    0.3399    0.0367 H   0  0  0  0  0  0  0  0  0  0  0  0
  1 11  1  0  0  0  0
  1  2  1  0  0  0  0
  1 10  1  0  0  0  0
  2  9  1  0  0  0  0
  2  3  2  0  0  0  0
  3  4  1  0  0  0  0
  3  5  1  0  0  0  0
  4 13  1  0  0  0  0
  5 16  1  6  0  0  0
  5  7  1  0  0  0  0
  5  6  1  0  0  0  0
  6 17  1  0  0  0  0
  7  8  2  0  0  0  0
  9 19  1  0  0  0  0
  9  7  1  0  0  0  0
 12  1  1  0  0  0  0
 14  4  1  0  0  0  0
 15  4  1  0  0  0  0
 18  9  1  0  0  0  0
M TOR 0 0 1 2 3
M TOR 1 0 1 2 4
M TOR 2 0 1 8 6
M TOR 3 0 1 8 17
M TOR 4 0 1 8 18
M TOR 5 1 2 3 12
M TOR 6 1 2 3 13
M TOR 7 1 2 3 14
M TOR 8 1 2 4 5
M TOR 9 1 2 4 6
M TOR 10 1 2 4 15
M TOR 11 1 8 6 4
M TOR 12 1 8 6 7
M TOR 13 2 1 0 9
M TOR 14 2 1 0 10
M TOR 15 2 1 0 11
M TOR 16 2 1 8 6
M TOR 17 2 1 8 17
M TOR 18 2 1 8 18
M TOR 19 2 4 5 16
M TOR 20 2 4 6 7
M TOR 21 2 4 6 8
M TOR 22 3 2 1 8
M TOR 23 3 2 4 5
M TOR 24 3 2 4 6
M TOR 25 3 2 4 15
M TOR 26 4 2 1 8
M TOR 27 4 2 3 12
M TOR 28 4 2 3 13
M TOR 29 4 2 3 14
M TOR 30 4 6 8 17
M TOR 31 4 6 8 18
M TOR 32 5 4 6 7
M TOR 33 5 4 6 8
M TOR 34 6 4 5 16
M TOR 35 7 6 4 15
M TOR 36 7 6 8 17
M TOR 37 7 6 8 18
M TOR 38 8 1 0 9
M TOR 39 8 1 0 10
M TOR 40 8 1 0 11
M TOR 41 8 6 4 15
M  END
$$$$
