gdb 5973	4.2599409	1.0116781	0.9273566	2.0872	77.24	-0.24194	0.00564	0.24758	1327.8863	0.156008	-422.529308	-422.520606	-422.519662	-422.56313	31.922
 OpenBabel02181911423D

 19 20  0  0  1  0  0  0  0  0999 V2000
    1.5566    0.6378    0.0700 C   0  0  0  0  0  0  0  0  0  0  0  0
    0.1609    0.8100    0.0168 O   0  0  0  0  0  0  0  0  0  0  0  0
   -0.5148    0.1293    1.0442 C   0  0  0  0  0  0  0  0  0  0  0  0
   -1.9834    0.4512    0.9916 C   0  0  1  0  0  0  0  0  0  0  0  0
   -2.3411    1.8517    1.0154 O   0  0  0  0  0  0  0  0  0  0  0  0
   -2.6930    1.0777   -0.1381 C   0  0  2  0  0  0  0  0  0  0  0  0
   -4.1324    0.5757   -0.1362 C   0  0  0  0  0  0  0  0  0  0  0  0
   -4.1799   -0.3150    1.0902 C   0  0  0  0  0  0  0  0  0  0  0  0
   -2.9931   -0.4060    1.6946 C   0  0  0  0  0  0  0  0  0  0  0  0
    1.8438   -0.4205   -0.0378 H   0  0  0  0  0  0  0  0  0  0  0  0
    1.9864    1.2063   -0.7579 H   0  0  0  0  0  0  0  0  0  0  0  0
    1.9778    1.0126    1.0161 H   0  0  0  0  0  0  0  0  0  0  0  0
   -0.3831   -0.9633    0.9479 H   0  0  0  0  0  0  0  0  0  0  0  0
   -0.1119    0.4156    2.0320 H   0  0  0  0  0  0  0  0  0  0  0  0
   -2.1899    1.3635   -1.0558 H   0  0  0  0  0  0  0  0  0  0  0  0
   -4.8503    1.4027   -0.0755 H   0  0  0  0  0  0  0  0  0  0  0  0
   -4.3622    0.0206   -1.0548 H   0  0  0  0  0  0  0  0  0  0  0  0
   -5.0961   -0.7818    1.4346 H   0  0  0  0  0  0  0  0  0  0  0  0
   -2.7736   -0.9807    2.5866 H   0  0  0  0  0  0  0  0  0  0  0  0
  1 12  1  0  0  0  0
  2  1  1  0  0  0  0
  2  3  1  0  0  0  0
  3 14  1  0  0  0  0
  4  5  1  0  0  0  0
  4  3  1  6  0  0  0
  4  9  1  0  0  0  0
  6 15  1  6  0  0  0
  6  7  1  0  0  0  0
  6  4  1  0  0  0  0
  6  5  1  0  0  0  0
  7 16  1  0  0  0  0
  7  8  1  0  0  0  0
  8 18  1  0  0  0  0
  8  9  2  0  0  0  0
  9 19  1  0  0  0  0
 10  1  1  0  0  0  0
 11  1  1  0  0  0  0
 13  3  1  0  0  0  0
 17  7  1  0  0  0  0
M TOR 0 0 1 2 3
M TOR 1 0 1 2 12
M TOR 2 0 1 2 13
M TOR 3 1 2 3 4
M TOR 4 1 2 3 5
M TOR 5 1 2 3 8
M TOR 6 2 1 0 9
M TOR 7 2 1 0 10
M TOR 8 2 1 0 11
M TOR 9 2 3 4 5
M TOR 10 2 3 5 6
M TOR 11 2 3 5 14
M TOR 12 2 3 8 7
M TOR 13 2 3 8 18
M TOR 14 3 4 5 6
M TOR 15 3 4 5 14
M TOR 16 3 5 6 7
M TOR 17 3 5 6 15
M TOR 18 3 5 6 16
M TOR 19 3 8 7 6
M TOR 20 3 8 7 17
M TOR 21 4 3 2 12
M TOR 22 4 3 2 13
M TOR 23 4 3 8 7
M TOR 24 4 3 8 18
M TOR 25 4 5 3 8
M TOR 26 4 5 6 7
M TOR 27 4 5 6 15
M TOR 28 4 5 6 16
M TOR 29 5 3 2 12
M TOR 30 5 3 2 13
M TOR 31 5 3 8 7
M TOR 32 5 3 8 18
M TOR 33 5 6 7 8
M TOR 34 5 6 7 17
M TOR 35 6 5 3 8
M TOR 36 6 7 8 18
M TOR 37 7 6 5 14
M TOR 38 8 3 2 12
M TOR 39 8 3 2 13
M TOR 40 8 3 5 14
M TOR 41 8 7 6 15
M TOR 42 8 7 6 16
M  END
$$$$
