gdb 5832	2.2893272	1.3081429	1.0324643	2.4041	77.08	-0.25022	0.03608	0.2863	1229.7298	0.1546	-422.506703	-422.496966	-422.496021	-422.541323	35.621
 OpenBabel02181911423D

 19 19  0  0  1  0  0  0  0  0999 V2000
   -3.1627    0.5615    2.1089 C   0  0  0  0  0  0  0  0  0  0  0  0
   -2.1410   -0.5192    1.7293 C   0  0  2  0  0  0  0  0  0  0  0  0
   -1.5537   -1.2720    2.9610 C   0  0  0  0  0  0  0  0  0  0  0  0
   -0.3143   -0.5423    2.8776 O   0  0  0  0  0  0  0  0  0  0  0  0
   -0.6852    0.0403    1.6015 C   0  0  1  0  0  0  0  0  0  0  0  0
    0.2219   -0.4988    0.5079 C   0  0  0  0  0  0  0  0  0  0  0  0
    1.5686   -0.1967    0.8185 O   0  0  0  0  0  0  0  0  0  0  0  0
   -2.6311   -1.3511    0.6433 C   0  0  0  0  0  0  0  0  0  0  0  0
   -3.0600   -2.0374   -0.2464 C   0  0  0  0  0  0  0  0  0  0  0  0
   -2.7823    1.1653    2.9385 H   0  0  0  0  0  0  0  0  0  0  0  0
   -3.3592    1.2219    1.2594 H   0  0  0  0  0  0  0  0  0  0  0  0
   -4.1103    0.1076    2.4128 H   0  0  0  0  0  0  0  0  0  0  0  0
   -2.0718   -1.0963    3.9103 H   0  0  0  0  0  0  0  0  0  0  0  0
   -1.4145   -2.3483    2.8111 H   0  0  0  0  0  0  0  0  0  0  0  0
   -0.6152    1.1340    1.6421 H   0  0  0  0  0  0  0  0  0  0  0  0
    0.0628   -1.5810    0.3894 H   0  0  0  0  0  0  0  0  0  0  0  0
   -0.0091   -0.0217   -0.4502 H   0  0  0  0  0  0  0  0  0  0  0  0
    1.7096   -0.5224    1.7164 H   0  0  0  0  0  0  0  0  0  0  0  0
   -3.4306   -2.6448   -1.0350 H   0  0  0  0  0  0  0  0  0  0  0  0
  1 12  1  0  0  0  0
  1 10  1  0  0  0  0
  2  8  1  6  0  0  0
  2  1  1  0  0  0  0
  2  3  1  0  0  0  0
  3 13  1  0  0  0  0
  4  3  1  0  0  0  0
  5 15  1  1  0  0  0
  5  2  1  0  0  0  0
  5  4  1  0  0  0  0
  6  7  1  0  0  0  0
  6  5  1  0  0  0  0
  7 18  1  0  0  0  0
  9  8  3  0  0  0  0
 11  1  1  0  0  0  0
 14  3  1  0  0  0  0
 16  6  1  0  0  0  0
 17  6  1  0  0  0  0
 19  9  1  0  0  0  0
M TOR 0 0 1 2 3
M TOR 1 0 1 2 12
M TOR 2 0 1 2 13
M TOR 3 0 1 4 3
M TOR 4 0 1 4 5
M TOR 5 0 1 4 14
M TOR 6 0 1 7 8
M TOR 7 1 2 3 4
M TOR 8 1 4 5 6
M TOR 9 1 4 5 15
M TOR 10 1 4 5 16
M TOR 11 1 7 8 18
M TOR 12 2 1 0 9
M TOR 13 2 1 0 10
M TOR 14 2 1 0 11
M TOR 15 2 1 4 5
M TOR 16 2 1 4 14
M TOR 17 2 1 7 8
M TOR 18 2 3 4 5
M TOR 19 2 3 4 14
M TOR 20 3 2 1 7
M TOR 21 3 4 1 7
M TOR 22 3 4 5 6
M TOR 23 3 4 5 15
M TOR 24 3 4 5 16
M TOR 25 4 1 0 9
M TOR 26 4 1 0 10
M TOR 27 4 1 0 11
M TOR 28 4 1 2 12
M TOR 29 4 1 2 13
M TOR 30 4 1 7 8
M TOR 31 4 3 2 12
M TOR 32 4 3 2 13
M TOR 33 4 5 6 17
M TOR 34 5 4 1 7
M TOR 35 6 5 4 14
M TOR 36 7 1 0 9
M TOR 37 7 1 0 10
M TOR 38 7 1 0 11
M TOR 39 7 1 2 12
M TOR 40 7 1 2 13
M TOR 41 7 1 4 14
M  END
$$$$
