
     RDKit          3D

 19 20  0  0  0  0  0  0  0  0999 V2000
    0.3164   -2.9456   -1.0835 C   0  0  0  0  0  0  0  0  0  0  0  0
   -0.9357   -2.0963   -1.0988 C   0  0  0  0  0  0  0  0  0  0  0  0
   -2.1641   -2.5969   -1.7326 C   0  0  0  0  0  0  0  0  0  0  0  0
   -1.3453   -1.6252   -2.3926 O   0  0  0  0  0  0  0  0  0  0  0  0
   -1.0271   -1.0620    0.0064 C   0  0  0  0  0  0  0  0  0  0  0  0
   -2.1206    0.0492   -0.0502 C   0  0  0  0  0  0  0  0  0  0  0  0
   -1.0462    1.1471    0.2131 C   0  0  0  0  0  0  0  0  0  0  0  0
    0.0282    0.0725    0.0025 C   0  0  0  0  0  0  0  0  0  0  0  0
    1.2114    0.0979   -0.1759 O   0  0  0  0  0  0  0  0  0  0  0  0
    0.3579   -3.5528   -0.1724 H   0  0  0  0  0  0  0  0  0  0  0  0
    0.3343   -3.6129   -1.9486 H   0  0  0  0  0  0  0  0  0  0  0  0
    1.2048   -2.3090   -1.1044 H   0  0  0  0  0  0  0  0  0  0  0  0
   -2.1675   -3.5874   -2.1861 H   0  0  0  0  0  0  0  0  0  0  0  0
   -3.1370   -2.2374   -1.3998 H   0  0  0  0  0  0  0  0  0  0  0  0
   -1.0026   -1.5705    0.9790 H   0  0  0  0  0  0  0  0  0  0  0  0
   -2.5465    0.1285   -1.0514 H   0  0  0  0  0  0  0  0  0  0  0  0
   -2.9201   -0.0270    0.6870 H   0  0  0  0  0  0  0  0  0  0  0  0
   -1.0057    1.9975   -0.4720 H   0  0  0  0  0  0  0  0  0  0  0  0
   -1.0398    1.5282    1.2397 H   0  0  0  0  0  0  0  0  0  0  0  0
  1  2  1  0
  2  3  1  0
  3  4  1  0
  2  5  1  0
  5  6  1  0
  6  7  1  0
  7  8  1  0
  8  9  2  0
  4  2  1  0
  8  5  1  0
  1 10  1  0
  1 11  1  0
  1 12  1  0
  3 13  1  0
  3 14  1  0
  5 15  1  0
  6 16  1  0
  6 17  1  0
  7 18  1  0
  7 19  1  0
M  END
$$$$
