
     RDKit          3D

 19 21  0  0  0  0  0  0  0  0999 V2000
    1.7686    0.1710   -0.3596 C   0  0  0  0  0  0  0  0  0  0  0  0
    0.9781    0.7075    0.8252 C   0  0  0  0  0  0  0  0  0  0  0  0
    0.7014   -0.1915    2.0068 C   0  0  0  0  0  0  0  0  0  0  0  0
    0.1458   -1.4690    1.3156 C   0  0  0  0  0  0  0  0  0  0  0  0
   -0.3853   -1.0755    0.0388 O   0  0  0  0  0  0  0  0  0  0  0  0
    0.2478    0.1186   -0.3257 C   0  0  0  0  0  0  0  0  0  0  0  0
   -0.5520    1.2432   -0.9394 C   0  0  0  0  0  0  0  0  0  0  0  0
    0.1202    2.4963   -0.3098 C   0  0  0  0  0  0  0  0  0  0  0  0
    0.7407    2.0839    0.9198 O   0  0  0  0  0  0  0  0  0  0  0  0
    2.2460    0.8862   -1.0207 H   0  0  0  0  0  0  0  0  0  0  0  0
    2.3138   -0.7586   -0.2376 H   0  0  0  0  0  0  0  0  0  0  0  0
    1.5642   -0.4193    2.6387 H   0  0  0  0  0  0  0  0  0  0  0  0
   -0.0609    0.2926    2.6250 H   0  0  0  0  0  0  0  0  0  0  0  0
    0.9450   -2.2087    1.1708 H   0  0  0  0  0  0  0  0  0  0  0  0
   -0.6573   -1.9502    1.8803 H   0  0  0  0  0  0  0  0  0  0  0  0
   -0.5421    1.2879   -2.0318 H   0  0  0  0  0  0  0  0  0  0  0  0
   -1.5893    1.1365   -0.6076 H   0  0  0  0  0  0  0  0  0  0  0  0
    0.8807    2.9081   -0.9871 H   0  0  0  0  0  0  0  0  0  0  0  0
   -0.5890    3.2953   -0.0775 H   0  0  0  0  0  0  0  0  0  0  0  0
  1  2  1  0
  2  3  1  0
  3  4  1  0
  4  5  1  0
  5  6  1  0
  6  7  1  0
  7  8  1  0
  8  9  1  0
  6  1  1  0
  6  2  1  0
  9  2  1  0
  1 10  1  0
  1 11  1  0
  3 12  1  0
  3 13  1  0
  4 14  1  0
  4 15  1  0
  7 16  1  0
  7 17  1  0
  8 18  1  0
  8 19  1  0
M  END
$$$$
