
     RDKit          3D

 19 20  0  0  0  0  0  0  0  0999 V2000
   -0.9380    2.4280   -0.7863 C   0  0  0  0  0  0  0  0  0  0  0  0
   -1.0398    1.1047   -0.0824 C   0  0  0  0  0  0  0  0  0  0  0  0
   -2.0414    0.8285    1.0355 C   0  0  0  0  0  0  0  0  0  0  0  0
   -2.0700   -0.0729   -0.1553 C   0  0  0  0  0  0  0  0  0  0  0  0
   -3.2517   -0.2200   -1.0676 C   0  0  0  0  0  0  0  0  0  0  0  0
   -4.1765   -1.1952   -0.6053 O   0  0  0  0  0  0  0  0  0  0  0  0
   -0.9514   -1.1158    0.0107 C   0  0  0  0  0  0  0  0  0  0  0  0
    0.0464    0.0707   -0.0098 C   0  0  0  0  0  0  0  0  0  0  0  0
    1.2357    0.1354   -0.1527 O   0  0  0  0  0  0  0  0  0  0  0  0
   -0.3442    3.1336   -0.1956 H   0  0  0  0  0  0  0  0  0  0  0  0
   -0.4505    2.3204   -1.7601 H   0  0  0  0  0  0  0  0  0  0  0  0
   -1.9248    2.8743   -0.9429 H   0  0  0  0  0  0  0  0  0  0  0  0
   -1.7096    0.4598    2.0028 H   0  0  0  0  0  0  0  0  0  0  0  0
   -2.8260    1.5790    1.0947 H   0  0  0  0  0  0  0  0  0  0  0  0
   -3.7367    0.7592   -1.2096 H   0  0  0  0  0  0  0  0  0  0  0  0
   -2.9303   -0.5708   -2.0543 H   0  0  0  0  0  0  0  0  0  0  0  0
   -4.4581   -0.9318    0.2773 H   0  0  0  0  0  0  0  0  0  0  0  0
   -0.9880   -1.7429    0.9060 H   0  0  0  0  0  0  0  0  0  0  0  0
   -0.7979   -1.7529   -0.8656 H   0  0  0  0  0  0  0  0  0  0  0  0
  1  2  1  0
  2  3  1  0
  3  4  1  0
  4  5  1  0
  5  6  1  0
  4  7  1  0
  7  8  1  0
  8  9  2  0
  4  2  1  0
  8  2  1  0
  1 10  1  0
  1 11  1  0
  1 12  1  0
  3 13  1  0
  3 14  1  0
  5 15  1  0
  5 16  1  0
  6 17  1  0
  7 18  1  0
  7 19  1  0
M  END
$$$$
