gdb 5684	2.5403649	1.0969126	0.8964876	3.2876	78.82	-0.24773	-0.03501	0.21272000000000002	1360.4752	0.154149	-422.569495	-422.559658	-422.558714	-422.60453	34.711
 OpenBabel02181911423D

 19 19  0  0  1  0  0  0  0  0999 V2000
    3.1203   -2.9496   -0.2877 C   0  0  0  0  0  0  0  0  0  0  0  0
    3.1259   -2.0131   -1.5033 C   0  0  0  0  0  0  0  0  0  0  0  0
    2.3560   -0.7399   -1.2210 C   0  0  2  0  0  0  0  0  0  0  0  0
    0.9003   -0.6200   -1.4247 C   0  0  0  0  0  0  0  0  0  0  0  0
    1.8176    0.1683   -2.3715 C   0  0  0  0  0  0  0  0  0  0  0  0
    1.9149   -0.2858   -3.7877 C   0  0  0  0  0  0  0  0  0  0  0  0
    1.6350   -1.3991   -4.1710 O   0  0  0  0  0  0  0  0  0  0  0  0
    1.9630    1.6254   -2.1292 C   0  0  0  0  0  0  0  0  0  0  0  0
    2.2063    2.4490   -2.9768 O   0  0  0  0  0  0  0  0  0  0  0  0
    3.6877   -3.8602   -0.5003 H   0  0  0  0  0  0  0  0  0  0  0  0
    3.5711   -2.4726    0.5895 H   0  0  0  0  0  0  0  0  0  0  0  0
    2.1002   -3.2433   -0.0201 H   0  0  0  0  0  0  0  0  0  0  0  0
    4.1596   -1.7588   -1.7670 H   0  0  0  0  0  0  0  0  0  0  0  0
    2.6924   -2.5173   -2.3699 H   0  0  0  0  0  0  0  0  0  0  0  0
    2.7620   -0.1485   -0.4009 H   0  0  0  0  0  0  0  0  0  0  0  0
    0.3888   -1.4410   -1.9168 H   0  0  0  0  0  0  0  0  0  0  0  0
    0.3021   -0.0413   -0.7286 H   0  0  0  0  0  0  0  0  0  0  0  0
    2.2645    0.4978   -4.4856 H   0  0  0  0  0  0  0  0  0  0  0  0
    1.8329    1.9201   -1.0607 H   0  0  0  0  0  0  0  0  0  0  0  0
  1 12  1  0  0  0  0
  1 11  1  0  0  0  0
  2  3  1  0  0  0  0
  2  1  1  0  0  0  0
  3 15  1  1  0  0  0
  4  3  1  0  0  0  0
  4 17  1  0  0  0  0
  5  8  1  0  0  0  0
  5  4  1  0  0  0  0
  5  3  1  0  0  0  0
  6  5  1  0  0  0  0
  7  6  2  0  0  0  0
  8 19  1  0  0  0  0
  9  8  2  0  0  0  0
 10  1  1  0  0  0  0
 13  2  1  0  0  0  0
 14  2  1  0  0  0  0
 16  4  1  0  0  0  0
 18  6  1  0  0  0  0
M TOR 0 0 1 2 3
M TOR 1 0 1 2 4
M TOR 2 0 1 2 14
M TOR 3 1 2 3 4
M TOR 4 1 2 3 15
M TOR 5 1 2 3 16
M TOR 6 1 2 4 5
M TOR 7 1 2 4 7
M TOR 8 2 1 0 9
M TOR 9 2 1 0 10
M TOR 10 2 1 0 11
M TOR 11 2 3 4 5
M TOR 12 2 3 4 7
M TOR 13 2 4 3 15
M TOR 14 2 4 3 16
M TOR 15 2 4 5 6
M TOR 16 2 4 5 17
M TOR 17 2 4 7 8
M TOR 18 2 4 7 18
M TOR 19 3 2 1 12
M TOR 20 3 2 1 13
M TOR 21 3 4 2 14
M TOR 22 3 4 5 6
M TOR 23 3 4 5 17
M TOR 24 3 4 7 8
M TOR 25 3 4 7 18
M TOR 26 4 2 1 12
M TOR 27 4 2 1 13
M TOR 28 5 4 2 14
M TOR 29 5 4 3 15
M TOR 30 5 4 3 16
M TOR 31 5 4 7 8
M TOR 32 5 4 7 18
M TOR 33 6 5 4 7
M TOR 34 7 4 2 14
M TOR 35 7 4 3 15
M TOR 36 7 4 3 16
M TOR 37 7 4 5 17
M  END
$$$$
