gdb 5534	2.7568667	1.4353041	1.103531	1.7937	76.73	-0.23489	0.0695	0.30439	1152.8398	0.15532	-422.445491	-422.437017	-422.436073	-422.478721	31.868
 OpenBabel02181911423D

 19 21  0  0  1  0  0  0  0  0999 V2000
    1.3558   -0.1557   -0.1381 C   0  0  0  0  0  0  0  0  0  0  0  0
   -0.0435   -0.1582    0.0601 O   0  0  0  0  0  0  0  0  0  0  0  0
   -0.4495    0.6373    1.1231 C   0  0  1  0  0  0  0  0  0  0  0  0
   -1.9308    0.5542    1.5598 C   0  0  2  0  0  0  0  0  0  0  0  0
   -1.5085    1.1681    2.8438 O   0  0  0  0  0  0  0  0  0  0  0  0
   -0.5175    0.0943    2.5966 C   0  0  1  0  0  0  0  0  0  0  0  0
   -1.6685   -0.8266    2.1762 C   0  0  0  0  0  0  0  0  0  0  0  0
   -1.7754   -2.2287    1.6963 C   0  0  0  0  0  0  0  0  0  0  0  0
   -2.5346   -1.7657    2.9360 C   0  0  0  0  0  0  0  0  0  0  0  0
    1.8918   -0.5942    0.7164 H   0  0  0  0  0  0  0  0  0  0  0  0
    1.5574   -0.7563   -1.0277 H   0  0  0  0  0  0  0  0  0  0  0  0
    1.7386    0.8632   -0.3005 H   0  0  0  0  0  0  0  0  0  0  0  0
   -0.0618    1.6626    1.0673 H   0  0  0  0  0  0  0  0  0  0  0  0
   -2.8218    0.9519    1.0735 H   0  0  0  0  0  0  0  0  0  0  0  0
    0.2647   -0.0502    3.3425 H   0  0  0  0  0  0  0  0  0  0  0  0
   -2.3401   -2.4213    0.7903 H   0  0  0  0  0  0  0  0  0  0  0  0
   -0.9248   -2.8881    1.8349 H   0  0  0  0  0  0  0  0  0  0  0  0
   -3.6111   -1.6508    2.8611 H   0  0  0  0  0  0  0  0  0  0  0  0
   -2.1928   -2.1163    3.9045 H   0  0  0  0  0  0  0  0  0  0  0  0
  1  2  1  0  0  0  0
  1 10  1  0  0  0  0
  2  3  1  0  0  0  0
  3 13  1  6  0  0  0
  3  4  1  0  0  0  0
  3  6  1  0  0  0  0
  4 14  1  6  0  0  0
  4  7  1  0  0  0  0
  4  5  1  0  0  0  0
  6  5  1  0  0  0  0
  6 15  1  1  0  0  0
  7  6  1  0  0  0  0
  7  9  1  0  0  0  0
  8 17  1  0  0  0  0
  8  7  1  0  0  0  0
  8  9  1  0  0  0  0
  9 19  1  0  0  0  0
 11  1  1  0  0  0  0
 12  1  1  0  0  0  0
 16  8  1  0  0  0  0
 18  9  1  0  0  0  0
M TOR 0 0 1 2 3
M TOR 1 0 1 2 5
M TOR 2 0 1 2 12
M TOR 3 1 2 3 4
M TOR 4 1 2 3 6
M TOR 5 1 2 3 13
M TOR 6 1 2 5 4
M TOR 7 1 2 5 6
M TOR 8 1 2 5 14
M TOR 9 2 1 0 9
M TOR 10 2 1 0 10
M TOR 11 2 1 0 11
M TOR 12 2 3 4 5
M TOR 13 2 3 6 5
M TOR 14 2 3 6 7
M TOR 15 2 3 6 8
M TOR 16 2 5 6 7
M TOR 17 2 5 6 8
M TOR 18 3 2 5 14
M TOR 19 3 4 5 6
M TOR 20 3 4 5 14
M TOR 21 3 6 5 14
M TOR 22 3 6 7 8
M TOR 23 3 6 7 15
M TOR 24 3 6 7 16
M TOR 25 3 6 8 17
M TOR 26 3 6 8 18
M TOR 27 4 3 2 12
M TOR 28 4 3 6 7
M TOR 29 4 3 6 8
M TOR 30 4 5 2 12
M TOR 31 4 5 6 7
M TOR 32 4 5 6 8
M TOR 33 5 2 3 13
M TOR 34 5 4 3 13
M TOR 35 5 6 3 13
M TOR 36 5 6 7 8
M TOR 37 5 6 7 15
M TOR 38 5 6 7 16
M TOR 39 5 6 8 17
M TOR 40 5 6 8 18
M TOR 41 6 3 2 12
M TOR 42 6 5 2 12
M TOR 43 6 7 8 17
M TOR 44 6 7 8 18
M TOR 45 6 8 7 15
M TOR 46 6 8 7 16
M TOR 47 7 6 3 13
M TOR 48 7 6 5 14
M TOR 49 8 6 3 13
M TOR 50 8 6 5 14
M  END
$$$$
