
     RDKit          3D

 19 20  0  0  0  0  0  0  0  0999 V2000
   -4.1864    1.7052   -1.4740 C   0  0  0  0  0  0  0  0  0  0  0  0
   -3.0300    0.8798   -0.9551 C   0  0  0  0  0  0  0  0  0  0  0  0
   -2.2185    0.0065   -1.9006 C   0  0  0  0  0  0  0  0  0  0  0  0
   -1.6259   -1.3123   -1.4503 C   0  0  0  0  0  0  0  0  0  0  0  0
   -1.0527   -1.2163   -0.0286 C   0  0  0  0  0  0  0  0  0  0  0  0
   -0.1923    0.0111    0.2248 C   0  0  0  0  0  0  0  0  0  0  0  0
    0.7644    0.0119    0.9500 O   0  0  0  0  0  0  0  0  0  0  0  0
   -0.5585    1.1729   -0.3777 O   0  0  0  0  0  0  0  0  0  0  0  0
   -1.6166    1.2490   -1.3141 C   0  0  0  0  0  0  0  0  0  0  0  0
   -4.3935    2.5563   -0.8167 H   0  0  0  0  0  0  0  0  0  0  0  0
   -3.9719    2.1010   -2.4725 H   0  0  0  0  0  0  0  0  0  0  0  0
   -5.1000    1.1053   -1.5473 H   0  0  0  0  0  0  0  0  0  0  0  0
   -3.1643    0.4940    0.0518 H   0  0  0  0  0  0  0  0  0  0  0  0
   -2.4927    0.0559   -2.9511 H   0  0  0  0  0  0  0  0  0  0  0  0
   -2.3685   -2.1168   -1.4952 H   0  0  0  0  0  0  0  0  0  0  0  0
   -0.8224   -1.5893   -2.1438 H   0  0  0  0  0  0  0  0  0  0  0  0
   -1.8657   -1.1919    0.7071 H   0  0  0  0  0  0  0  0  0  0  0  0
   -0.4404   -2.0849    0.2193 H   0  0  0  0  0  0  0  0  0  0  0  0
   -1.4542    2.1207   -1.9381 H   0  0  0  0  0  0  0  0  0  0  0  0
  1  2  1  0
  2  3  1  0
  3  4  1  0
  4  5  1  0
  5  6  1  0
  6  7  2  0
  6  8  1  0
  8  9  1  0
  9  2  1  0
  9  3  1  0
  1 10  1  0
  1 11  1  0
  1 12  1  0
  2 13  1  0
  3 14  1  0
  4 15  1  0
  4 16  1  0
  5 17  1  0
  5 18  1  0
  9 19  1  0
M  END
$$$$
