
     RDKit          3D

 19 21  0  0  0  0  0  0  0  0999 V2000
    2.1061    1.4214    0.0296 C   0  0  0  0  0  0  0  0  0  0  0  0
    1.5238    0.0115    0.0033 C   0  0  0  0  0  0  0  0  0  0  0  0
    2.1610   -0.8767   -1.1078 C   0  0  0  0  0  0  0  0  0  0  0  0
    1.4563   -2.2528   -1.2545 C   0  0  0  0  0  0  0  0  0  0  0  0
    2.1160   -2.7286    0.0610 C   0  0  0  0  0  0  0  0  0  0  0  0
    1.4727   -2.1578    1.2211 O   0  0  0  0  0  0  0  0  0  0  0  0
    2.1684   -0.9011    1.0809 C   0  0  0  0  0  0  0  0  0  0  0  0
    3.1032   -1.5096   -0.0217 C   0  0  0  0  0  0  0  0  0  0  0  0
    4.4739   -1.4895   -0.1264 O   0  0  0  0  0  0  0  0  0  0  0  0
    1.7820    1.9656    0.9234 H   0  0  0  0  0  0  0  0  0  0  0  0
    3.2022    1.3952    0.0327 H   0  0  0  0  0  0  0  0  0  0  0  0
    1.7918    1.9931   -0.8496 H   0  0  0  0  0  0  0  0  0  0  0  0
    0.4299    0.0342    0.0266 H   0  0  0  0  0  0  0  0  0  0  0  0
    2.5253   -0.3794   -2.0068 H   0  0  0  0  0  0  0  0  0  0  0  0
    0.3641   -2.2726   -1.2906 H   0  0  0  0  0  0  0  0  0  0  0  0
    1.8614   -2.8089   -2.1064 H   0  0  0  0  0  0  0  0  0  0  0  0
    2.3605   -3.7838    0.2008 H   0  0  0  0  0  0  0  0  0  0  0  0
    2.4543   -0.4716    2.0450 H   0  0  0  0  0  0  0  0  0  0  0  0
    4.8501   -1.9234    0.6487 H   0  0  0  0  0  0  0  0  0  0  0  0
  1  2  1  0
  2  3  1  0
  3  4  1  0
  4  5  1  0
  5  6  1  0
  6  7  1  0
  7  8  1  0
  8  9  1  0
  7  2  1  0
  8  3  1  0
  8  5  1  0
  1 10  1  0
  1 11  1  0
  1 12  1  0
  2 13  1  0
  3 14  1  0
  4 15  1  0
  4 16  1  0
  5 17  1  0
  7 18  1  0
  9 19  1  0
M  END
$$$$
