
     RDKit          3D

 19 20  0  0  0  0  0  0  0  0999 V2000
    3.7447    1.3601   -0.3736 C   0  0  0  0  0  0  0  0  0  0  0  0
    3.2803    0.3222   -1.3768 C   0  0  0  0  0  0  0  0  0  0  0  0
    4.0540   -0.2846   -2.0834 O   0  0  0  0  0  0  0  0  0  0  0  0
    1.7847    0.0841   -1.4473 C   0  0  0  0  0  0  0  0  0  0  0  0
    1.2080   -1.2577   -2.0055 C   0  0  0  0  0  0  0  0  0  0  0  0
   -0.0660   -0.9353   -1.1592 C   0  0  0  0  0  0  0  0  0  0  0  0
    1.0109   -0.4040   -0.1851 C   0  0  0  0  0  0  0  0  0  0  0  0
    1.7349   -1.5797    0.2037 O   0  0  0  0  0  0  0  0  0  0  0  0
    1.8844   -2.2684   -1.0694 C   0  0  0  0  0  0  0  0  0  0  0  0
    3.5987    0.9634    0.6381 H   0  0  0  0  0  0  0  0  0  0  0  0
    4.8025    1.5787   -0.5247 H   0  0  0  0  0  0  0  0  0  0  0  0
    3.1535    2.2791   -0.4479 H   0  0  0  0  0  0  0  0  0  0  0  0
    1.2970    0.9557   -1.8969 H   0  0  0  0  0  0  0  0  0  0  0  0
    1.1777   -1.4873   -3.0683 H   0  0  0  0  0  0  0  0  0  0  0  0
   -0.6877   -0.1520   -1.5953 H   0  0  0  0  0  0  0  0  0  0  0  0
   -0.6735   -1.7730   -0.8091 H   0  0  0  0  0  0  0  0  0  0  0  0
    0.8057    0.2127    0.6886 H   0  0  0  0  0  0  0  0  0  0  0  0
    2.9426   -2.4278   -1.2847 H   0  0  0  0  0  0  0  0  0  0  0  0
    1.3629   -3.2314   -1.0342 H   0  0  0  0  0  0  0  0  0  0  0  0
  1  2  1  0
  2  3  2  0
  2  4  1  0
  4  5  1  0
  5  6  1  0
  6  7  1  0
  7  8  1  0
  8  9  1  0
  7  4  1  0
  9  5  1  0
  1 10  1  0
  1 11  1  0
  1 12  1  0
  4 13  1  0
  5 14  1  0
  6 15  1  0
  6 16  1  0
  7 17  1  0
  9 18  1  0
  9 19  1  0
M  END
$$$$
