gdb 6086	4.5494697	0.6670907	0.6102057	1.9551	80.74	-0.24933	0.04525	0.29458	1802.2354	0.154241	-422.491909	-422.481946	-422.481002	-422.527797	35.717
 OpenBabel02181911423D

 19 19  0  0  1  0  0  0  0  0999 V2000
   -2.4218   -2.6932    4.3703 O   0  0  0  0  0  0  0  0  0  0  0  0
   -2.2401   -3.2763    3.0964 C   0  0  0  0  0  0  0  0  0  0  0  0
   -2.6285   -2.3166    1.9837 C   0  0  0  0  0  0  0  0  0  0  0  0
   -1.7809   -1.1788    2.1189 O   0  0  0  0  0  0  0  0  0  0  0  0
   -2.1012   -0.1338    1.2606 C   0  0  2  0  0  0  0  0  0  0  0  0
   -1.5531   -0.1353   -0.1364 C   0  0  0  0  0  0  0  0  0  0  0  0
   -0.9669    0.8017    0.9230 C   0  0  1  0  0  0  0  0  0  0  0  0
   -1.1858    2.2158    0.8538 C   0  0  0  0  0  0  0  0  0  0  0  0
   -1.3737    3.4023    0.7920 C   0  0  0  0  0  0  0  0  0  0  0  0
   -1.9783   -1.8375    4.3339 H   0  0  0  0  0  0  0  0  0  0  0  0
   -1.1974   -3.5980    2.9431 H   0  0  0  0  0  0  0  0  0  0  0  0
   -2.8759   -4.1665    3.0522 H   0  0  0  0  0  0  0  0  0  0  0  0
   -2.5016   -2.7811    0.9944 H   0  0  0  0  0  0  0  0  0  0  0  0
   -3.6809   -2.0159    2.0958 H   0  0  0  0  0  0  0  0  0  0  0  0
   -3.0836    0.3089    1.4233 H   0  0  0  0  0  0  0  0  0  0  0  0
   -0.9302   -0.9737   -0.4263 H   0  0  0  0  0  0  0  0  0  0  0  0
   -2.1449    0.3075   -0.9286 H   0  0  0  0  0  0  0  0  0  0  0  0
   -0.0070    0.4903    1.3237 H   0  0  0  0  0  0  0  0  0  0  0  0
   -1.5366    4.4502    0.7423 H   0  0  0  0  0  0  0  0  0  0  0  0
  2  1  1  0  0  0  0
  3 14  1  0  0  0  0
  3  4  1  0  0  0  0
  3  2  1  0  0  0  0
  5 15  1  1  0  0  0
  5  4  1  0  0  0  0
  6  7  1  0  0  0  0
  6  5  1  0  0  0  0
  7  5  1  0  0  0  0
  7 18  1  1  0  0  0
  8  7  1  0  0  0  0
  9  8  3  0  0  0  0
 10  1  1  0  0  0  0
 11  2  1  0  0  0  0
 12  2  1  0  0  0  0
 13  3  1  0  0  0  0
 16  6  1  0  0  0  0
 17  6  1  0  0  0  0
 19  9  1  0  0  0  0
M TOR 0 0 1 2 3
M TOR 1 0 1 2 12
M TOR 2 0 1 2 13
M TOR 3 1 2 3 4
M TOR 4 2 1 0 9
M TOR 5 2 3 4 5
M TOR 6 2 3 4 6
M TOR 7 2 3 4 14
M TOR 8 3 2 1 10
M TOR 9 3 2 1 11
M TOR 10 3 4 5 6
M TOR 11 3 4 5 15
M TOR 12 3 4 5 16
M TOR 13 3 4 6 7
M TOR 14 3 4 6 17
M TOR 15 4 3 2 12
M TOR 16 4 3 2 13
M TOR 17 4 5 6 7
M TOR 18 4 5 6 17
M TOR 19 4 6 5 15
M TOR 20 4 6 5 16
M TOR 21 4 6 7 8
M TOR 22 5 6 4 14
M TOR 23 5 6 7 8
M TOR 24 6 7 8 18
M TOR 25 7 6 4 14
M TOR 26 7 6 5 15
M TOR 27 7 6 5 16
M TOR 28 8 7 6 17
M  END
$$$$
