
     RDKit          3D

 19 21  0  0  0  0  0  0  0  0999 V2000
    0.0122   -0.0236   -0.0893 C   0  0  0  0  0  0  0  0  0  0  0  0
    1.5216    0.0914   -0.0715 C   0  0  0  0  0  0  0  0  0  0  0  0
    2.1407    1.3392    0.5366 C   0  0  0  0  0  0  0  0  0  0  0  0
    3.4137    1.7647    0.1137 O   0  0  0  0  0  0  0  0  0  0  0  0
    4.4050    0.8976    0.6190 C   0  0  0  0  0  0  0  0  0  0  0  0
    4.5324   -0.4778    0.0199 C   0  0  0  0  0  0  0  0  0  0  0  0
    3.7444   -0.2725    1.3002 C   0  0  0  0  0  0  0  0  0  0  0  0
    2.2538    0.0306    1.2629 C   0  0  0  0  0  0  0  0  0  0  0  0
    1.5471   -0.1791    2.4480 O   0  0  0  0  0  0  0  0  0  0  0  0
   -0.4269    0.4167    0.8096 H   0  0  0  0  0  0  0  0  0  0  0  0
   -0.4064    0.4881   -0.9621 H   0  0  0  0  0  0  0  0  0  0  0  0
   -0.3071   -1.0711   -0.1334 H   0  0  0  0  0  0  0  0  0  0  0  0
    2.0232   -0.3310   -0.9362 H   0  0  0  0  0  0  0  0  0  0  0  0
    1.4931    2.1477    0.8617 H   0  0  0  0  0  0  0  0  0  0  0  0
    5.2750    1.4240    0.9963 H   0  0  0  0  0  0  0  0  0  0  0  0
    4.0198   -0.6998   -0.9084 H   0  0  0  0  0  0  0  0  0  0  0  0
    5.4973   -0.9646    0.1206 H   0  0  0  0  0  0  0  0  0  0  0  0
    4.1095   -0.6860    2.2322 H   0  0  0  0  0  0  0  0  0  0  0  0
    1.2787   -1.1043    2.4750 H   0  0  0  0  0  0  0  0  0  0  0  0
  1  2  1  0
  2  3  1  0
  3  4  1  0
  4  5  1  0
  5  6  1  0
  6  7  1  0
  7  8  1  0
  8  9  1  0
  8  2  1  0
  8  3  1  0
  7  5  1  0
  1 10  1  0
  1 11  1  0
  1 12  1  0
  2 13  1  0
  3 14  1  0
  5 15  1  0
  6 16  1  0
  6 17  1  0
  7 18  1  0
  9 19  1  0
M  END
$$$$
