
     RDKit          3D

 19 18  0  0  0  0  0  0  0  0999 V2000
    1.4728   -0.1684   -0.0686 C   0  0  0  0  0  0  0  0  0  0  0  0
    0.0213   -0.0614   -0.0437 C   0  0  0  0  0  0  0  0  0  0  0  0
   -1.1811    0.0123   -0.0359 C   0  0  0  0  0  0  0  0  0  0  0  0
   -2.6368    0.1582   -0.0010 C   0  0  0  0  0  0  0  0  0  0  0  0
   -3.0799    1.2585   -0.7967 O   0  0  0  0  0  0  0  0  0  0  0  0
   -3.1504    0.2723    1.4506 C   0  0  0  0  0  0  0  0  0  0  0  0
   -4.6815    0.3824    1.5104 C   0  0  0  0  0  0  0  0  0  0  0  0
   -5.1676    0.7467    2.8918 C   0  0  0  0  0  0  0  0  0  0  0  0
   -5.9713    0.1219    3.5344 O   0  0  0  0  0  0  0  0  0  0  0  0
    1.9098    0.0829    0.9037 H   0  0  0  0  0  0  0  0  0  0  0  0
    1.7886   -1.1858   -0.3237 H   0  0  0  0  0  0  0  0  0  0  0  0
    1.9050    0.5084   -0.8136 H   0  0  0  0  0  0  0  0  0  0  0  0
   -3.1024   -0.7218   -0.4634 H   0  0  0  0  0  0  0  0  0  0  0  0
   -2.4807    1.9937   -0.6262 H   0  0  0  0  0  0  0  0  0  0  0  0
   -2.8035   -0.5980    2.0182 H   0  0  0  0  0  0  0  0  0  0  0  0
   -2.6876    1.1553    1.9104 H   0  0  0  0  0  0  0  0  0  0  0  0
   -4.9879    1.1807    0.8209 H   0  0  0  0  0  0  0  0  0  0  0  0
   -5.1679   -0.5468    1.1991 H   0  0  0  0  0  0  0  0  0  0  0  0
   -4.7105    1.6796    3.3019 H   0  0  0  0  0  0  0  0  0  0  0  0
  1  2  1  0
  2  3  3  0
  3  4  1  0
  4  5  1  0
  4  6  1  0
  6  7  1  0
  7  8  1  0
  8  9  2  0
  1 10  1  0
  1 11  1  0
  1 12  1  0
  4 13  1  0
  5 14  1  0
  6 15  1  0
  6 16  1  0
  7 17  1  0
  7 18  1  0
  8 19  1  0
M  END
$$$$
