
     RDKit          3D

 19 20  0  0  0  0  0  0  0  0999 V2000
   -0.0176    1.4730    0.0967 C   0  0  0  0  0  0  0  0  0  0  0  0
    0.0044   -0.0060   -0.1064 C   0  0  0  0  0  0  0  0  0  0  0  0
   -1.0034   -0.8593   -0.2648 C   0  0  0  0  0  0  0  0  0  0  0  0
   -2.3813   -1.2477    0.2130 C   0  0  0  0  0  0  0  0  0  0  0  0
   -1.8420   -2.5522    0.5933 O   0  0  0  0  0  0  0  0  0  0  0  0
   -0.6119   -2.2915   -0.1480 C   0  0  0  0  0  0  0  0  0  0  0  0
    0.7832   -2.2258    0.5230 C   0  0  0  0  0  0  0  0  0  0  0  0
    0.6054   -2.2068    1.9245 O   0  0  0  0  0  0  0  0  0  0  0  0
    1.2891   -0.8411   -0.0145 C   0  0  0  0  0  0  0  0  0  0  0  0
    0.5242    1.9963   -0.7019 H   0  0  0  0  0  0  0  0  0  0  0  0
   -1.0393    1.8619    0.1162 H   0  0  0  0  0  0  0  0  0  0  0  0
    0.4752    1.7469    1.0384 H   0  0  0  0  0  0  0  0  0  0  0  0
   -2.7845   -0.6919    1.0669 H   0  0  0  0  0  0  0  0  0  0  0  0
   -3.1584   -1.3568   -0.5551 H   0  0  0  0  0  0  0  0  0  0  0  0
   -0.5848   -2.9051   -1.0596 H   0  0  0  0  0  0  0  0  0  0  0  0
    1.4432   -3.0520    0.2197 H   0  0  0  0  0  0  0  0  0  0  0  0
    1.4738   -2.1086    2.3273 H   0  0  0  0  0  0  0  0  0  0  0  0
    1.8028   -0.9519   -0.9797 H   0  0  0  0  0  0  0  0  0  0  0  0
    2.0153   -0.3958    0.6777 H   0  0  0  0  0  0  0  0  0  0  0  0
  1  2  1  0
  2  3  2  0
  3  4  1  0
  4  5  1  0
  5  6  1  0
  6  7  1  0
  7  8  1  0
  7  9  1  0
  9  2  1  0
  6  3  1  0
  1 10  1  0
  1 11  1  0
  1 12  1  0
  4 13  1  0
  4 14  1  0
  6 15  1  0
  7 16  1  0
  8 17  1  0
  9 18  1  0
  9 19  1  0
M  END
$$$$
