
     RDKit          3D

 19 19  0  0  0  0  0  0  0  0999 V2000
   -2.3145    1.6271   -2.5487 C   0  0  0  0  0  0  0  0  0  0  0  0
   -1.7709    1.8534   -1.1379 C   0  0  0  0  0  0  0  0  0  0  0  0
   -0.3834    1.5156   -1.1712 O   0  0  0  0  0  0  0  0  0  0  0  0
    0.2221    1.4697    0.0841 C   0  0  0  0  0  0  0  0  0  0  0  0
    1.4381    0.5976    0.2015 C   0  0  0  0  0  0  0  0  0  0  0  0
    0.1446    0.2074    0.8912 C   0  0  0  0  0  0  0  0  0  0  0  0
    0.0170    0.3507    2.2741 O   0  0  0  0  0  0  0  0  0  0  0  0
   -1.9849    3.2345   -0.6856 C   0  0  0  0  0  0  0  0  0  0  0  0
   -2.1610    4.3671   -0.3235 C   0  0  0  0  0  0  0  0  0  0  0  0
   -2.1524    0.5863   -2.8400 H   0  0  0  0  0  0  0  0  0  0  0  0
   -3.3839    1.8484   -2.5838 H   0  0  0  0  0  0  0  0  0  0  0  0
   -1.7964    2.2775   -3.2573 H   0  0  0  0  0  0  0  0  0  0  0  0
   -2.2848    1.1785   -0.4354 H   0  0  0  0  0  0  0  0  0  0  0  0
    0.2120    2.4031    0.6439 H   0  0  0  0  0  0  0  0  0  0  0  0
    1.7298    0.0299   -0.6749 H   0  0  0  0  0  0  0  0  0  0  0  0
    2.2518    0.9626    0.8184 H   0  0  0  0  0  0  0  0  0  0  0  0
   -0.4096   -0.6186    0.4444 H   0  0  0  0  0  0  0  0  0  0  0  0
    0.5713   -0.3150    2.6950 H   0  0  0  0  0  0  0  0  0  0  0  0
   -2.3169    5.3657    0.0031 H   0  0  0  0  0  0  0  0  0  0  0  0
  1  2  1  0
  2  3  1  0
  3  4  1  0
  4  5  1  0
  5  6  1  0
  6  7  1  0
  2  8  1  0
  8  9  3  0
  6  4  1  0
  1 10  1  0
  1 11  1  0
  1 12  1  0
  2 13  1  0
  4 14  1  0
  5 15  1  0
  5 16  1  0
  6 17  1  0
  7 18  1  0
  9 19  1  0
M  END
$$$$
