gdb 4579	2.4443029	1.51721	0.9829115	3.9337	79.22	-0.25434	-0.05969	0.19465000000000002	1191.8336	0.158481	-422.590604	-422.582361	-422.581417	-422.62349	31.633
 OpenBabel02181911413D

 19 19  0  0  1  0  0  0  0  0999 V2000
   -0.2951   -2.5494    0.4885 O   0  0  0  0  0  0  0  0  0  0  0  0
   -1.0611   -1.4537    0.0675 C   0  0  2  0  0  0  0  0  0  0  0  0
   -1.3622   -1.5747   -1.4309 C   0  0  0  0  0  0  0  0  0  0  0  0
   -2.5084   -0.6778   -1.9056 C   0  0  0  0  0  0  0  0  0  0  0  0
   -2.1553    0.7986   -2.1131 C   0  0  0  0  0  0  0  0  0  0  0  0
   -1.5391    1.5705   -0.9807 C   0  0  0  0  0  0  0  0  0  0  0  0
   -0.8168    1.1822    0.0799 C   0  0  0  0  0  0  0  0  0  0  0  0
   -0.3592   -0.1591    0.4898 C   0  0  0  0  0  0  0  0  0  0  0  0
    0.5970   -0.2544    1.2448 O   0  0  0  0  0  0  0  0  0  0  0  0
    0.3913   -2.1671    1.0613 H   0  0  0  0  0  0  0  0  0  0  0  0
   -2.0326   -1.4385    0.6004 H   0  0  0  0  0  0  0  0  0  0  0  0
   -0.4494   -1.3922   -2.0116 H   0  0  0  0  0  0  0  0  0  0  0  0
   -1.6295   -2.6230   -1.5958 H   0  0  0  0  0  0  0  0  0  0  0  0
   -2.8898   -1.0599   -2.8588 H   0  0  0  0  0  0  0  0  0  0  0  0
   -3.3411   -0.7532   -1.1943 H   0  0  0  0  0  0  0  0  0  0  0  0
   -1.4658    0.8919   -2.9678 H   0  0  0  0  0  0  0  0  0  0  0  0
   -3.0581    1.3365   -2.4287 H   0  0  0  0  0  0  0  0  0  0  0  0
   -1.6556    2.6485   -1.0908 H   0  0  0  0  0  0  0  0  0  0  0  0
   -0.3986    1.9536    0.7216 H   0  0  0  0  0  0  0  0  0  0  0  0
  1 10  1  0  0  0  0
  2  1  1  0  0  0  0
  2  8  1  0  0  0  0
  2 11  1  1  0  0  0
  3  2  1  0  0  0  0
  4  3  1  0  0  0  0
  4 15  1  0  0  0  0
  5  4  1  0  0  0  0
  5  6  1  0  0  0  0
  6  7  2  0  0  0  0
  7  8  1  0  0  0  0
  7 19  1  0  0  0  0
  8  9  2  0  0  0  0
 12  3  1  0  0  0  0
 13  3  1  0  0  0  0
 14  4  1  0  0  0  0
 16  5  1  0  0  0  0
 17  5  1  0  0  0  0
 18  6  1  0  0  0  0
M TOR 0 0 1 2 3
M TOR 1 0 1 2 11
M TOR 2 0 1 2 12
M TOR 3 0 1 7 6
M TOR 4 0 1 7 8
M TOR 5 1 2 3 4
M TOR 6 1 2 3 13
M TOR 7 1 2 3 14
M TOR 8 1 7 6 5
M TOR 9 1 7 6 18
M TOR 10 2 1 0 9
M TOR 11 2 1 7 6
M TOR 12 2 1 7 8
M TOR 13 2 3 4 5
M TOR 14 2 3 4 15
M TOR 15 2 3 4 16
M TOR 16 3 2 1 7
M TOR 17 3 2 1 10
M TOR 18 3 4 5 6
M TOR 19 3 4 5 17
M TOR 20 4 3 2 11
M TOR 21 4 3 2 12
M TOR 22 4 5 6 7
M TOR 23 4 5 6 18
M TOR 24 5 4 3 13
M TOR 25 5 4 3 14
M TOR 26 5 6 7 8
M TOR 27 6 5 4 15
M TOR 28 6 5 4 16
M TOR 29 6 7 1 10
M TOR 30 7 1 0 9
M TOR 31 7 1 2 11
M TOR 32 7 1 2 12
M TOR 33 7 6 5 17
M TOR 34 8 7 1 10
M TOR 35 8 7 6 18
M  END
$$$$
