
     RDKit          3D

 19 21  0  0  0  0  0  0  0  0999 V2000
   -0.0256    0.2685   -0.5174 C   0  0  0  0  0  0  0  0  0  0  0  0
    1.3369   -0.0212    0.0654 C   0  0  0  0  0  0  0  0  0  0  0  0
    1.8105   -1.4994    0.1889 C   0  0  0  0  0  0  0  0  0  0  0  0
    3.2584   -1.0869   -0.1656 C   0  0  0  0  0  0  0  0  0  0  0  0
    3.9223   -0.4683    0.9581 O   0  0  0  0  0  0  0  0  0  0  0  0
    3.2707    0.7985    0.7161 C   0  0  0  0  0  0  0  0  0  0  0  0
    1.8300    0.8213    1.2796 C   0  0  0  0  0  0  0  0  0  0  0  0
    2.7264    0.3079   -0.6488 C   0  0  0  0  0  0  0  0  0  0  0  0
    2.9419    0.9854   -1.8273 O   0  0  0  0  0  0  0  0  0  0  0  0
   -0.8224   -0.0224    0.1779 H   0  0  0  0  0  0  0  0  0  0  0  0
   -0.1476    1.3361   -0.7320 H   0  0  0  0  0  0  0  0  0  0  0  0
   -0.1927   -0.2840   -1.4503 H   0  0  0  0  0  0  0  0  0  0  0  0
    1.6690   -2.0075    1.1464 H   0  0  0  0  0  0  0  0  0  0  0  0
    1.3786   -2.1097   -0.6133 H   0  0  0  0  0  0  0  0  0  0  0  0
    3.9100   -1.7800   -0.7015 H   0  0  0  0  0  0  0  0  0  0  0  0
    3.9368    1.6472    0.8781 H   0  0  0  0  0  0  0  0  0  0  0  0
    1.6891    0.4133    2.2839 H   0  0  0  0  0  0  0  0  0  0  0  0
    1.4199    1.8364    1.2356 H   0  0  0  0  0  0  0  0  0  0  0  0
    2.4530    0.5488   -2.5339 H   0  0  0  0  0  0  0  0  0  0  0  0
  1  2  1  0
  2  3  1  0
  3  4  1  0
  4  5  1  0
  5  6  1  0
  6  7  1  0
  6  8  1  0
  8  9  1  0
  7  2  1  0
  8  2  1  0
  8  4  1  0
  1 10  1  0
  1 11  1  0
  1 12  1  0
  3 13  1  0
  3 14  1  0
  4 15  1  0
  6 16  1  0
  7 17  1  0
  7 18  1  0
  9 19  1  0
M  END
$$$$
