
     RDKit          3D

 19 21  0  0  0  0  0  0  0  0999 V2000
    2.2814   -1.3696    0.3020 C   0  0  0  0  0  0  0  0  0  0  0  0
    3.4909   -0.6486   -0.2067 C   0  0  0  0  0  0  0  0  0  0  0  0
    4.0761   -1.3438   -1.3115 O   0  0  0  0  0  0  0  0  0  0  0  0
    2.8702   -1.1312   -2.0912 C   0  0  0  0  0  0  0  0  0  0  0  0
    2.1630   -0.4655   -0.9099 C   0  0  0  0  0  0  0  0  0  0  0  0
    1.2556    0.7186   -0.9800 C   0  0  0  0  0  0  0  0  0  0  0  0
   -0.2807    0.5017   -0.9796 C   0  0  0  0  0  0  0  0  0  0  0  0
   -0.2619    1.3999    0.2704 C   0  0  0  0  0  0  0  0  0  0  0  0
    1.1838    1.4247    0.2840 O   0  0  0  0  0  0  0  0  0  0  0  0
    2.2230   -2.4506    0.2060 H   0  0  0  0  0  0  0  0  0  0  0  0
    1.8473   -0.9440    1.2009 H   0  0  0  0  0  0  0  0  0  0  0  0
    4.1163    0.0256    0.3661 H   0  0  0  0  0  0  0  0  0  0  0  0
    3.0670   -0.4411   -2.9210 H   0  0  0  0  0  0  0  0  0  0  0  0
    2.4517   -2.0674   -2.4795 H   0  0  0  0  0  0  0  0  0  0  0  0
    1.5921    1.3944   -1.7809 H   0  0  0  0  0  0  0  0  0  0  0  0
   -0.8230    0.8811   -1.8465 H   0  0  0  0  0  0  0  0  0  0  0  0
   -0.5741   -0.5316   -0.7867 H   0  0  0  0  0  0  0  0  0  0  0  0
   -0.6808    2.4039    0.1266 H   0  0  0  0  0  0  0  0  0  0  0  0
   -0.6709    0.9732    1.1928 H   0  0  0  0  0  0  0  0  0  0  0  0
  1  2  1  0
  2  3  1  0
  3  4  1  0
  4  5  1  0
  5  6  1  0
  6  7  1  0
  7  8  1  0
  8  9  1  0
  5  1  1  0
  9  6  1  0
  5  2  1  0
  1 10  1  0
  1 11  1  0
  2 12  1  0
  4 13  1  0
  4 14  1  0
  6 15  1  0
  7 16  1  0
  7 17  1  0
  8 18  1  0
  8 19  1  0
M  END
$$$$
