gdb 3904	2.5000754	1.4647909	1.1305579	2.864	76.32	-0.24433	-0.03742	0.20690999999999998	1143.5681	0.15539	-422.539136	-422.530392	-422.529448	-422.572791	32.26
 OpenBabel02181911413D

 19 20  0  0  1  0  0  0  0  0999 V2000
    1.7208   -0.9126   -1.0208 C   0  0  0  0  0  0  0  0  0  0  0  0
    1.4585    0.1326    0.0444 C   0  0  1  0  0  0  0  0  0  0  0  0
    1.8909   -0.3212    1.3605 O   0  0  0  0  0  0  0  0  0  0  0  0
    2.8396    0.7491    1.4871 C   0  0  2  0  0  0  0  0  0  0  0  0
    2.3001    2.0198    2.1862 C   0  0  0  0  0  0  0  0  0  0  0  0
    1.8607    2.6002    0.8073 C   0  0  0  0  0  0  0  0  0  0  0  0
    2.4154    1.3430    0.0923 C   0  0  2  0  0  0  0  0  0  0  0  0
    4.2287    0.2732    1.7925 C   0  0  0  0  0  0  0  0  0  0  0  0
    5.1089    0.9861    2.2069 O   0  0  0  0  0  0  0  0  0  0  0  0
    1.1697   -1.8303   -0.7940 H   0  0  0  0  0  0  0  0  0  0  0  0
    1.3960   -0.5481   -2.0015 H   0  0  0  0  0  0  0  0  0  0  0  0
    2.7863   -1.1579   -1.0753 H   0  0  0  0  0  0  0  0  0  0  0  0
    0.3943    0.4044    0.0614 H   0  0  0  0  0  0  0  0  0  0  0  0
    1.5088    1.8135    2.9089 H   0  0  0  0  0  0  0  0  0  0  0  0
    3.1015    2.5855    2.6653 H   0  0  0  0  0  0  0  0  0  0  0  0
    0.7880    2.7633    0.6725 H   0  0  0  0  0  0  0  0  0  0  0  0
    2.3848    3.5191    0.5381 H   0  0  0  0  0  0  0  0  0  0  0  0
    3.0985    1.4732   -0.7468 H   0  0  0  0  0  0  0  0  0  0  0  0
    4.3904   -0.8063    1.5755 H   0  0  0  0  0  0  0  0  0  0  0  0
  1 10  1  0  0  0  0
  1  2  1  0  0  0  0
  2 13  1  1  0  0  0
  2  7  1  0  0  0  0
  2  3  1  0  0  0  0
  3  4  1  0  0  0  0
  4  8  1  1  0  0  0
  4  5  1  0  0  0  0
  5 15  1  0  0  0  0
  5 14  1  0  0  0  0
  6  5  1  0  0  0  0
  7 18  1  6  0  0  0
  7  6  1  0  0  0  0
  7  4  1  0  0  0  0
  8  9  2  0  0  0  0
 11  1  1  0  0  0  0
 12  1  1  0  0  0  0
 16  6  1  0  0  0  0
 17  6  1  0  0  0  0
 19  8  1  0  0  0  0
M TOR 0 0 1 2 3
M TOR 1 0 1 6 3
M TOR 2 0 1 6 5
M TOR 3 0 1 6 17
M TOR 4 1 2 3 4
M TOR 5 1 2 3 6
M TOR 6 1 2 3 7
M TOR 7 1 6 3 4
M TOR 8 1 6 3 7
M TOR 9 1 6 5 4
M TOR 10 1 6 5 15
M TOR 11 1 6 5 16
M TOR 12 2 1 0 9
M TOR 13 2 1 0 10
M TOR 14 2 1 0 11
M TOR 15 2 1 6 5
M TOR 16 2 1 6 17
M TOR 17 2 3 4 5
M TOR 18 2 3 4 13
M TOR 19 2 3 4 14
M TOR 20 2 3 6 5
M TOR 21 2 3 6 17
M TOR 22 2 3 7 8
M TOR 23 2 3 7 18
M TOR 24 3 2 1 12
M TOR 25 3 4 5 6
M TOR 26 3 4 5 15
M TOR 27 3 4 5 16
M TOR 28 3 6 1 12
M TOR 29 3 6 5 15
M TOR 30 3 6 5 16
M TOR 31 4 3 6 17
M TOR 32 4 3 7 8
M TOR 33 4 3 7 18
M TOR 34 4 5 6 17
M TOR 35 5 4 3 7
M TOR 36 5 6 1 12
M TOR 37 5 6 3 7
M TOR 38 6 1 0 9
M TOR 39 6 1 0 10
M TOR 40 6 1 0 11
M TOR 41 6 3 4 13
M TOR 42 6 3 4 14
M TOR 43 6 3 7 8
M TOR 44 6 3 7 18
M TOR 45 6 5 4 13
M TOR 46 6 5 4 14
M TOR 47 7 3 4 13
M TOR 48 7 3 4 14
M TOR 49 7 3 6 17
M  END
$$$$
