
     RDKit          3D

 19 21  0  0  0  0  0  0  0  0999 V2000
    1.1180    0.8861    0.2008 O   0  0  0  0  0  0  0  0  0  0  0  0
    0.1753   -0.1440    0.4658 C   0  0  0  0  0  0  0  0  0  0  0  0
   -1.2368    0.2942    0.2189 C   0  0  0  0  0  0  0  0  0  0  0  0
   -2.0794    0.9987    1.2479 C   0  0  0  0  0  0  0  0  0  0  0  0
   -2.5778   -0.3060    0.6872 C   0  0  0  0  0  0  0  0  0  0  0  0
   -3.1687   -0.1609   -0.7348 C   0  0  0  0  0  0  0  0  0  0  0  0
   -3.8241    1.1766   -1.1323 C   0  0  0  0  0  0  0  0  0  0  0  0
   -2.5279    1.7624   -1.4323 O   0  0  0  0  0  0  0  0  0  0  0  0
   -1.8561    0.5024   -1.1862 C   0  0  0  0  0  0  0  0  0  0  0  0
    0.8279    1.6698    0.6798 H   0  0  0  0  0  0  0  0  0  0  0  0
    0.4512   -0.9658   -0.2054 H   0  0  0  0  0  0  0  0  0  0  0  0
    0.2658   -0.5247    1.4971 H   0  0  0  0  0  0  0  0  0  0  0  0
   -1.7063    0.9310    2.2659 H   0  0  0  0  0  0  0  0  0  0  0  0
   -2.5546    1.9428    1.0066 H   0  0  0  0  0  0  0  0  0  0  0  0
   -2.7413   -1.1630    1.3298 H   0  0  0  0  0  0  0  0  0  0  0  0
   -3.5448   -1.0789   -1.1827 H   0  0  0  0  0  0  0  0  0  0  0  0
   -4.4470    1.1207   -2.0335 H   0  0  0  0  0  0  0  0  0  0  0  0
   -4.3636    1.7298   -0.3547 H   0  0  0  0  0  0  0  0  0  0  0  0
   -1.2475    0.1703   -2.0307 H   0  0  0  0  0  0  0  0  0  0  0  0
  1  2  1  0
  2  3  1  0
  3  4  1  0
  4  5  1  0
  5  6  1  0
  6  7  1  0
  7  8  1  0
  8  9  1  0
  5  3  1  0
  9  6  1  0
  9  3  1  0
  1 10  1  0
  2 11  1  0
  2 12  1  0
  4 13  1  0
  4 14  1  0
  5 15  1  0
  6 16  1  0
  7 17  1  0
  7 18  1  0
  9 19  1  0
M  END
$$$$
