gdb 881	3.012786	1.352851	1.0471046	3.0362	75.08	-0.24607	-0.02471	0.22136	1156.9371	0.157512	-422.555115	-422.546801	-422.545857	-422.589293	30.736
 OpenBabel02181911403D

 19 20  0  0  1  0  0  0  0  0999 V2000
    1.2001   -0.6646    0.0244 O   0  0  0  0  0  0  0  0  0  0  0  0
    0.2399    0.0594    0.0213 C   0  0  0  0  0  0  0  0  0  0  0  0
    0.2197    1.4227   -0.6578 C   0  0  2  0  0  0  0  0  0  0  0  0
   -0.9958    2.0488   -0.2977 O   0  0  0  0  0  0  0  0  0  0  0  0
   -1.1021    3.3491   -0.8640 C   0  0  0  0  0  0  0  0  0  0  0  0
   -1.3047    3.2922   -2.3820 C   0  0  0  0  0  0  0  0  0  0  0  0
   -0.3935    2.2560   -3.0406 C   0  0  2  0  0  0  0  0  0  0  0  0
   -0.7839    0.7973   -2.9924 C   0  0  0  0  0  0  0  0  0  0  0  0
    0.3751    1.2877   -2.1652 C   0  0  2  0  0  0  0  0  0  0  0  0
   -0.7208   -0.2146    0.5107 H   0  0  0  0  0  0  0  0  0  0  0  0
    1.0743    2.0011   -0.2633 H   0  0  0  0  0  0  0  0  0  0  0  0
   -1.9487    3.8320   -0.3686 H   0  0  0  0  0  0  0  0  0  0  0  0
   -0.1941    3.9247   -0.6217 H   0  0  0  0  0  0  0  0  0  0  0  0
   -2.3529    3.0618   -2.6036 H   0  0  0  0  0  0  0  0  0  0  0  0
   -1.1072    4.2859   -2.7984 H   0  0  0  0  0  0  0  0  0  0  0  0
    0.1102    2.5850   -3.9436 H   0  0  0  0  0  0  0  0  0  0  0  0
   -1.7073    0.5568   -2.4750 H   0  0  0  0  0  0  0  0  0  0  0  0
   -0.5693    0.1703   -3.8503 H   0  0  0  0  0  0  0  0  0  0  0  0
    1.3727    0.9946   -2.4736 H   0  0  0  0  0  0  0  0  0  0  0  0
  2  1  2  0  0  0  0
  2 10  1  0  0  0  0
  3  4  1  0  0  0  0
  3 11  1  1  0  0  0
  3  2  1  0  0  0  0
  5 13  1  0  0  0  0
  5 12  1  0  0  0  0
  5  4  1  0  0  0  0
  6  5  1  0  0  0  0
  7 16  1  6  0  0  0
  7  8  1  0  0  0  0
  7  6  1  0  0  0  0
  7  9  1  0  0  0  0
  8 17  1  0  0  0  0
  8  9  1  0  0  0  0
  9 19  1  6  0  0  0
  9  3  1  0  0  0  0
 14  6  1  0  0  0  0
 15  6  1  0  0  0  0
 18  8  1  0  0  0  0
M TOR 0 0 1 2 3
M TOR 1 0 1 2 8
M TOR 2 0 1 2 10
M TOR 3 1 2 3 4
M TOR 4 1 2 8 6
M TOR 5 1 2 8 7
M TOR 6 1 2 8 18
M TOR 7 2 3 4 5
M TOR 8 2 3 4 11
M TOR 9 2 3 4 12
M TOR 10 2 8 6 5
M TOR 11 2 8 6 7
M TOR 12 2 8 6 15
M TOR 13 2 8 7 16
M TOR 14 2 8 7 17
M TOR 15 3 2 1 9
M TOR 16 3 2 8 6
M TOR 17 3 2 8 7
M TOR 18 3 2 8 18
M TOR 19 3 4 5 6
M TOR 20 3 4 5 13
M TOR 21 3 4 5 14
M TOR 22 4 3 2 8
M TOR 23 4 3 2 10
M TOR 24 4 5 6 7
M TOR 25 4 5 6 8
M TOR 26 4 5 6 15
M TOR 27 5 6 7 8
M TOR 28 5 6 7 16
M TOR 29 5 6 7 17
M TOR 30 5 6 8 18
M TOR 31 6 5 4 11
M TOR 32 6 5 4 12
M TOR 33 6 7 8 18
M TOR 34 6 8 2 10
M TOR 35 6 8 7 16
M TOR 36 6 8 7 17
M TOR 37 7 6 5 13
M TOR 38 7 6 5 14
M TOR 39 7 8 2 10
M TOR 40 7 8 6 15
M TOR 41 8 2 1 9
M TOR 42 8 6 5 13
M TOR 43 8 6 5 14
M  END
$$$$
