gdb 4098	3.4845587	1.3322534	1.0829358	1.1723	77.04	-0.24118	0.01849	0.25967	1131.3885	0.158194	-422.547101	-422.53917	-422.538226	-422.579486	30.798
 OpenBabel02181911413D

 19 20  0  0  1  0  0  0  0  0999 V2000
    0.1138   -0.0759   -0.1493 O   0  0  0  0  0  0  0  0  0  0  0  0
   -0.8929    0.2881    0.7746 C   0  0  2  0  0  0  0  0  0  0  0  0
   -2.2341   -0.3486    0.3379 C   0  0  0  0  0  0  0  0  0  0  0  0
   -2.6375    1.0211   -0.3057 C   0  0  1  0  0  0  0  0  0  0  0  0
   -3.9907    1.6068   -0.0760 C   0  0  0  0  0  0  0  0  0  0  0  0
   -4.1604    2.6183    0.7729 C   0  0  0  0  0  0  0  0  0  0  0  0
   -3.0196    3.1569    1.5952 C   0  0  0  0  0  0  0  0  0  0  0  0
   -1.9475    2.2384    1.7278 O   0  0  0  0  0  0  0  0  0  0  0  0
   -1.4957    1.6944    0.5052 C   0  0  1  0  0  0  0  0  0  0  0  0
    0.8891    0.4673    0.0285 H   0  0  0  0  0  0  0  0  0  0  0  0
   -0.5816    0.1271    1.8143 H   0  0  0  0  0  0  0  0  0  0  0  0
   -2.1370   -1.2065   -0.3291 H   0  0  0  0  0  0  0  0  0  0  0  0
   -2.8657   -0.6085    1.1891 H   0  0  0  0  0  0  0  0  0  0  0  0
   -2.3947    1.0138   -1.3729 H   0  0  0  0  0  0  0  0  0  0  0  0
   -4.8311    1.2003   -0.6338 H   0  0  0  0  0  0  0  0  0  0  0  0
   -5.1305    3.0871    0.9134 H   0  0  0  0  0  0  0  0  0  0  0  0
   -2.6610    4.1148    1.1757 H   0  0  0  0  0  0  0  0  0  0  0  0
   -3.3543    3.3681    2.6171 H   0  0  0  0  0  0  0  0  0  0  0  0
   -0.8527    2.4066   -0.0352 H   0  0  0  0  0  0  0  0  0  0  0  0
  1 10  1  0  0  0  0
  1  2  1  0  0  0  0
  2 11  1  1  0  0  0
  3  2  1  0  0  0  0
  3 13  1  0  0  0  0
  4 14  1  6  0  0  0
  4  5  1  0  0  0  0
  4  3  1  0  0  0  0
  4  9  1  0  0  0  0
  5  6  2  0  0  0  0
  6 16  1  0  0  0  0
  6  7  1  0  0  0  0
  7  8  1  0  0  0  0
  7 18  1  0  0  0  0
  9 19  1  6  0  0  0
  9  2  1  0  0  0  0
  9  8  1  0  0  0  0
 12  3  1  0  0  0  0
 15  5  1  0  0  0  0
 17  7  1  0  0  0  0
M TOR 0 0 1 2 3
M TOR 1 0 1 2 11
M TOR 2 0 1 2 12
M TOR 3 0 1 8 3
M TOR 4 0 1 8 7
M TOR 5 0 1 8 18
M TOR 6 1 2 3 4
M TOR 7 1 2 3 8
M TOR 8 1 2 3 13
M TOR 9 1 8 3 4
M TOR 10 1 8 3 13
M TOR 11 1 8 7 6
M TOR 12 2 1 0 9
M TOR 13 2 1 8 7
M TOR 14 2 1 8 18
M TOR 15 2 3 4 5
M TOR 16 2 3 4 14
M TOR 17 2 3 8 7
M TOR 18 2 3 8 18
M TOR 19 3 2 1 10
M TOR 20 3 4 5 6
M TOR 21 3 4 5 15
M TOR 22 3 8 1 10
M TOR 23 3 8 7 6
M TOR 24 4 3 2 11
M TOR 25 4 3 2 12
M TOR 26 4 3 8 7
M TOR 27 4 3 8 18
M TOR 28 4 5 6 7
M TOR 29 4 5 6 16
M TOR 30 4 5 6 17
M TOR 31 5 4 3 8
M TOR 32 5 4 3 13
M TOR 33 5 6 7 8
M TOR 34 6 5 4 14
M TOR 35 6 7 8 18
M TOR 36 7 6 5 15
M TOR 37 7 8 1 10
M TOR 38 7 8 3 13
M TOR 39 8 1 0 9
M TOR 40 8 1 2 11
M TOR 41 8 1 2 12
M TOR 42 8 3 2 11
M TOR 43 8 3 2 12
M TOR 44 8 3 4 14
M TOR 45 8 7 6 16
M TOR 46 8 7 6 17
M  END
$$$$
