gdb 1965	4.0587896	1.1200849	1.0370546	2.5291	75.09	-0.24299	0.07254	0.31553	1188.0574	0.156362	-422.499716	-422.491369	-422.490425	-422.532896	31.743
 OpenBabel02181911403D

 19 21  0  0  1  0  0  0  0  0999 V2000
   -2.3194    4.0328    0.3681 O   0  0  0  0  0  0  0  0  0  0  0  0
   -1.9182    2.7173    0.2278 C   0  0  2  0  0  0  0  0  0  0  0  0
   -2.5195    1.5941    1.0214 C   0  0  0  0  0  0  0  0  0  0  0  0
   -1.0448    1.9164    1.1804 C   0  0  1  0  0  0  0  0  0  0  0  0
   -0.2653    1.3328    0.0026 C   0  0  0  0  0  0  0  0  0  0  0  0
    1.2725    1.4357   -0.0356 C   0  0  0  0  0  0  0  0  0  0  0  0
    1.4147    0.0048   -0.1231 O   0  0  0  0  0  0  0  0  0  0  0  0
   -0.0155   -0.1821   -0.1507 C   0  0  0  0  0  0  0  0  0  0  0  0
   -1.1384    2.1762   -0.9782 C   0  0  0  0  0  0  0  0  0  0  0  0
   -3.2213    4.1129    0.0387 H   0  0  0  0  0  0  0  0  0  0  0  0
   -3.1349    1.9190    1.8545 H   0  0  0  0  0  0  0  0  0  0  0  0
   -2.8420    0.6670    0.5511 H   0  0  0  0  0  0  0  0  0  0  0  0
   -0.6240    2.1934    2.1399 H   0  0  0  0  0  0  0  0  0  0  0  0
    1.6850    1.9465   -0.9164 H   0  0  0  0  0  0  0  0  0  0  0  0
    1.7466    1.8439    0.8669 H   0  0  0  0  0  0  0  0  0  0  0  0
   -0.3513   -0.6231   -1.0990 H   0  0  0  0  0  0  0  0  0  0  0  0
   -0.3667   -0.8082    0.6796 H   0  0  0  0  0  0  0  0  0  0  0  0
   -0.5485    2.9592   -1.4624 H   0  0  0  0  0  0  0  0  0  0  0  0
   -1.7085    1.6322   -1.7402 H   0  0  0  0  0  0  0  0  0  0  0  0
  2  1  1  1  0  0  0
  2  3  1  0  0  0  0
  2  4  1  0  0  0  0
  3  4  1  0  0  0  0
  3 11  1  0  0  0  0
  4 13  1  1  0  0  0
  5  4  1  0  0  0  0
  6  5  1  0  0  0  0
  6 15  1  0  0  0  0
  7  6  1  0  0  0  0
  8  7  1  0  0  0  0
  8  5  1  0  0  0  0
  8 17  1  0  0  0  0
  9  5  1  0  0  0  0
  9  2  1  0  0  0  0
 10  1  1  0  0  0  0
 12  3  1  0  0  0  0
 14  6  1  0  0  0  0
 16  8  1  0  0  0  0
 18  9  1  0  0  0  0
 19  9  1  0  0  0  0
M TOR 0 0 1 2 3
M TOR 1 0 1 2 10
M TOR 2 0 1 2 11
M TOR 3 0 1 3 4
M TOR 4 0 1 3 12
M TOR 5 0 1 8 4
M TOR 6 0 1 8 17
M TOR 7 0 1 8 18
M TOR 8 1 2 3 4
M TOR 9 1 2 3 12
M TOR 10 1 3 2 10
M TOR 11 1 3 2 11
M TOR 12 1 3 4 5
M TOR 13 1 3 4 7
M TOR 14 1 3 4 8
M TOR 15 1 8 4 5
M TOR 16 1 8 4 7
M TOR 17 2 1 0 9
M TOR 18 2 1 8 4
M TOR 19 2 1 8 17
M TOR 20 2 1 8 18
M TOR 21 2 3 1 8
M TOR 22 2 3 4 5
M TOR 23 2 3 4 7
M TOR 24 2 3 4 8
M TOR 25 3 1 0 9
M TOR 26 3 1 8 17
M TOR 27 3 1 8 18
M TOR 28 3 4 5 6
M TOR 29 3 4 5 13
M TOR 30 3 4 5 14
M TOR 31 3 4 7 6
M TOR 32 3 4 7 15
M TOR 33 3 4 7 16
M TOR 34 3 4 8 17
M TOR 35 3 4 8 18
M TOR 36 4 3 2 10
M TOR 37 4 3 2 11
M TOR 38 4 5 6 7
M TOR 39 5 4 3 12
M TOR 40 5 4 7 15
M TOR 41 5 4 7 16
M TOR 42 5 4 8 17
M TOR 43 5 4 8 18
M TOR 44 5 6 7 15
M TOR 45 5 6 7 16
M TOR 46 6 5 4 8
M TOR 47 6 7 4 8
M TOR 48 7 4 3 12
M TOR 49 7 4 5 13
M TOR 50 7 4 5 14
M TOR 51 7 4 8 17
M TOR 52 7 4 8 18
M TOR 53 7 6 5 13
M TOR 54 7 6 5 14
M TOR 55 8 1 0 9
M TOR 56 8 1 2 10
M TOR 57 8 1 2 11
M TOR 58 8 1 3 12
M TOR 59 8 4 3 12
M TOR 60 8 4 5 13
M TOR 61 8 4 5 14
M TOR 62 8 4 7 15
M TOR 63 8 4 7 16
M  END
$$$$
