gdb 3936	3.5099678	1.4324714	1.2573904	2.555	74.63	-0.24685	0.06655	0.3134	1060.4891	0.157375	-422.51102	-422.503179	-422.502234	-422.542975	30.511
 OpenBabel02181911413D

 19 21  0  0  1  0  0  0  0  0999 V2000
    0.9156    0.7745   -1.1198 C   0  0  0  0  0  0  0  0  0  0  0  0
    1.6934    0.1612    0.0336 C   0  0  2  0  0  0  0  0  0  0  0  0
    3.2160   -0.1954   -0.1830 C   0  0  0  0  0  0  0  0  0  0  0  0
    2.8699   -1.6591    0.1478 C   0  0  1  0  0  0  0  0  0  0  0  0
    3.2444   -2.6693    1.1973 C   0  0  0  0  0  0  0  0  0  0  0  0
    1.9891   -3.1371    1.7104 O   0  0  0  0  0  0  0  0  0  0  0  0
    0.9597   -2.1583    1.5021 C   0  0  0  0  0  0  0  0  0  0  0  0
    1.4497   -1.3387    0.3399 C   0  0  1  0  0  0  0  0  0  0  0  0
    1.8833   -2.1114   -0.7824 O   0  0  0  0  0  0  0  0  0  0  0  0
    0.9964    0.1432   -2.0090 H   0  0  0  0  0  0  0  0  0  0  0  0
   -0.1459    0.8795   -0.8704 H   0  0  0  0  0  0  0  0  0  0  0  0
    1.3021    1.7686   -1.3681 H   0  0  0  0  0  0  0  0  0  0  0  0
    1.5753    0.7536    0.9462 H   0  0  0  0  0  0  0  0  0  0  0  0
    3.6212   -0.0352   -1.1848 H   0  0  0  0  0  0  0  0  0  0  0  0
    3.8709    0.2740    0.5542 H   0  0  0  0  0  0  0  0  0  0  0  0
    3.7850   -3.5478    0.8325 H   0  0  0  0  0  0  0  0  0  0  0  0
    3.8499   -2.1814    1.9780 H   0  0  0  0  0  0  0  0  0  0  0  0
    0.0299   -2.7088    1.3309 H   0  0  0  0  0  0  0  0  0  0  0  0
    0.8290   -1.5090    2.3827 H   0  0  0  0  0  0  0  0  0  0  0  0
  1 11  1  0  0  0  0
  1  2  1  0  0  0  0
  2  8  1  0  0  0  0
  2 13  1  1  0  0  0
  3  2  1  0  0  0  0
  3  4  1  0  0  0  0
  3 15  1  0  0  0  0
  4  9  1  6  0  0  0
  4  8  1  0  0  0  0
  4  5  1  0  0  0  0
  5  6  1  0  0  0  0
  5 17  1  0  0  0  0
  7  6  1  0  0  0  0
  7 19  1  0  0  0  0
  8  9  1  6  0  0  0
  8  7  1  0  0  0  0
 10  1  1  0  0  0  0
 12  1  1  0  0  0  0
 14  3  1  0  0  0  0
 16  5  1  0  0  0  0
 18  7  1  0  0  0  0
M TOR 0 0 1 2 3
M TOR 1 0 1 2 13
M TOR 2 0 1 2 14
M TOR 3 0 1 7 3
M TOR 4 0 1 7 6
M TOR 5 0 1 7 8
M TOR 6 1 2 3 4
M TOR 7 1 2 3 7
M TOR 8 1 2 3 8
M TOR 9 1 7 3 4
M TOR 10 1 7 3 8
M TOR 11 1 7 6 5
M TOR 12 1 7 6 17
M TOR 13 1 7 6 18
M TOR 14 2 1 0 9
M TOR 15 2 1 0 10
M TOR 16 2 1 0 11
M TOR 17 2 1 7 6
M TOR 18 2 1 7 8
M TOR 19 2 3 4 5
M TOR 20 2 3 4 15
M TOR 21 2 3 4 16
M TOR 22 2 3 7 6
M TOR 23 2 3 7 8
M TOR 24 3 2 1 12
M TOR 25 3 4 5 6
M TOR 26 3 7 1 12
M TOR 27 3 7 6 5
M TOR 28 3 7 6 17
M TOR 29 3 7 6 18
M TOR 30 3 8 7 6
M TOR 31 4 3 2 13
M TOR 32 4 3 2 14
M TOR 33 4 3 7 6
M TOR 34 4 3 7 8
M TOR 35 4 5 6 7
M TOR 36 4 5 6 17
M TOR 37 4 5 6 18
M TOR 38 5 4 3 7
M TOR 39 5 4 3 8
M TOR 40 5 6 7 8
M TOR 41 6 5 4 15
M TOR 42 6 5 4 16
M TOR 43 6 7 1 12
M TOR 44 7 1 0 9
M TOR 45 7 1 0 10
M TOR 46 7 1 0 11
M TOR 47 7 1 2 13
M TOR 48 7 1 2 14
M TOR 49 7 3 2 13
M TOR 50 7 3 2 14
M TOR 51 7 3 4 15
M TOR 52 7 3 4 16
M TOR 53 8 3 2 13
M TOR 54 8 3 2 14
M TOR 55 8 3 4 15
M TOR 56 8 3 4 16
M TOR 57 8 7 1 12
M TOR 58 8 7 6 17
M TOR 59 8 7 6 18
M  END
$$$$
