gdb 278	2.4975039	2.0296059	1.5244118	2.3762	73.79	-0.24205	0.07172	0.31377	931.4707	0.159437	-422.517361	-422.510382	-422.509437	-422.54835	28.521
 OpenBabel02181911403D

 19 21  0  0  1  0  0  0  0  0999 V2000
   -2.4219   -1.6377   -0.7423 C   0  0  0  0  0  0  0  0  0  0  0  0
   -1.2380   -2.4925   -0.2201 C   0  0  1  0  0  0  0  0  0  0  0  0
   -0.3446   -1.2230   -0.3373 C   0  0  0  0  0  0  0  0  0  0  0  0
   -1.6497   -0.3692   -0.2852 C   0  0  2  0  0  0  0  0  0  0  0  0
   -1.9828    0.0608    1.1372 C   0  0  1  0  0  0  0  0  0  0  0  0
   -3.0945   -0.5574    1.8096 O   0  0  0  0  0  0  0  0  0  0  0  0
   -1.7799   -0.8216    2.2940 C   0  0  1  0  0  0  0  0  0  0  0  0
   -1.2150   -2.2311    2.2244 C   0  0  0  0  0  0  0  0  0  0  0  0
   -1.4797   -3.0087    1.0808 O   0  0  0  0  0  0  0  0  0  0  0  0
   -2.5039   -1.6806   -1.8317 H   0  0  0  0  0  0  0  0  0  0  0  0
   -3.3894   -1.8299   -0.2801 H   0  0  0  0  0  0  0  0  0  0  0  0
   -0.9455   -3.3569   -0.8218 H   0  0  0  0  0  0  0  0  0  0  0  0
    0.4230   -1.0412    0.4183 H   0  0  0  0  0  0  0  0  0  0  0  0
    0.1240   -1.1900   -1.3243 H   0  0  0  0  0  0  0  0  0  0  0  0
   -1.6944    0.4965   -0.9498 H   0  0  0  0  0  0  0  0  0  0  0  0
   -1.9150    1.1337    1.3201 H   0  0  0  0  0  0  0  0  0  0  0  0
   -1.5549   -0.3539    3.2572 H   0  0  0  0  0  0  0  0  0  0  0  0
   -0.1308   -2.1463    2.4139 H   0  0  0  0  0  0  0  0  0  0  0  0
   -1.6328   -2.8119    3.0549 H   0  0  0  0  0  0  0  0  0  0  0  0
  1  4  1  0  0  0  0
  1 11  1  0  0  0  0
  1  2  1  0  0  0  0
  2 12  1  6  0  0  0
  2  9  1  0  0  0  0
  3  4  1  0  0  0  0
  3  2  1  0  0  0  0
  3 13  1  0  0  0  0
  4 15  1  6  0  0  0
  4  5  1  0  0  0  0
  5 16  1  1  0  0  0
  5  6  1  0  0  0  0
  5  7  1  0  0  0  0
  6  7  1  0  0  0  0
  7 17  1  1  0  0  0
  8  7  1  0  0  0  0
  8 18  1  0  0  0  0
  8 19  1  0  0  0  0
  9  8  1  0  0  0  0
 10  1  1  0  0  0  0
 14  3  1  0  0  0  0
M TOR 0 0 1 2 3
M TOR 1 0 1 2 12
M TOR 2 0 1 2 13
M TOR 3 0 1 8 7
M TOR 4 0 3 2 12
M TOR 5 0 3 2 13
M TOR 6 0 3 4 5
M TOR 7 0 3 4 6
M TOR 8 0 3 4 15
M TOR 9 1 0 3 4
M TOR 10 1 0 3 14
M TOR 11 1 2 3 4
M TOR 12 1 2 3 14
M TOR 13 1 8 7 6
M TOR 14 1 8 7 17
M TOR 15 1 8 7 18
M TOR 16 2 1 0 9
M TOR 17 2 1 0 10
M TOR 18 2 1 8 7
M TOR 19 2 3 0 9
M TOR 20 2 3 0 10
M TOR 21 2 3 4 5
M TOR 22 2 3 4 6
M TOR 23 2 3 4 15
M TOR 24 3 0 1 8
M TOR 25 3 0 1 11
M TOR 26 3 2 1 8
M TOR 27 3 2 1 11
M TOR 28 3 4 5 6
M TOR 29 3 4 6 7
M TOR 30 3 4 6 16
M TOR 31 4 3 0 9
M TOR 32 4 3 0 10
M TOR 33 4 3 2 12
M TOR 34 4 3 2 13
M TOR 35 4 5 6 7
M TOR 36 4 5 6 16
M TOR 37 4 6 7 8
M TOR 38 4 6 7 17
M TOR 39 4 6 7 18
M TOR 40 5 4 3 14
M TOR 41 5 6 4 15
M TOR 42 5 6 7 8
M TOR 43 5 6 7 17
M TOR 44 5 6 7 18
M TOR 45 6 4 3 14
M TOR 46 7 6 4 15
M TOR 47 7 8 1 11
M TOR 48 8 1 0 9
M TOR 49 8 1 0 10
M TOR 50 8 1 2 12
M TOR 51 8 1 2 13
M TOR 52 8 7 6 16
M  END
$$$$
