gdb 5965	4.1465859	0.9451211	0.8856982	1.3134	74.73	-0.22817	0.06239	0.29056000000000004	1355.7348	0.155668	-422.477234	-422.468585	-422.467641	-422.51099	32.55
 OpenBabel02181911423D

 19 21  0  0  1  0  0  0  0  0999 V2000
    1.4717    0.7420   -0.1467 O   0  0  0  0  0  0  0  0  0  0  0  0
    0.1239    0.4212    0.1596 C   0  0  0  0  0  0  0  0  0  0  0  0
   -0.7652    1.2691   -0.7488 C   0  0  0  0  0  0  0  0  0  0  0  0
   -2.2182    1.0643   -0.4730 C   0  0  2  0  0  0  0  0  0  0  0  0
   -2.8426   -0.1587   -0.9155 O   0  0  0  0  0  0  0  0  0  0  0  0
   -3.4197    1.1006   -1.3004 C   0  0  1  0  0  0  0  0  0  0  0  0
   -4.2701    1.6635   -0.1190 C   0  0  1  0  0  0  0  0  0  0  0  0
   -4.2180    0.7536    1.0789 C   0  0  0  0  0  0  0  0  0  0  0  0
   -3.0258    1.6154    0.7578 C   0  0  1  0  0  0  0  0  0  0  0  0
    2.0426    0.1781    0.3830 H   0  0  0  0  0  0  0  0  0  0  0  0
   -0.0899   -0.6438   -0.0146 H   0  0  0  0  0  0  0  0  0  0  0  0
   -0.1095    0.6360    1.2149 H   0  0  0  0  0  0  0  0  0  0  0  0
   -0.5082    2.3254   -0.6044 H   0  0  0  0  0  0  0  0  0  0  0  0
   -0.5530    1.0189   -1.7932 H   0  0  0  0  0  0  0  0  0  0  0  0
   -3.5642    1.2802   -2.3595 H   0  0  0  0  0  0  0  0  0  0  0  0
   -4.9830    2.4698   -0.2263 H   0  0  0  0  0  0  0  0  0  0  0  0
   -4.8038    1.0902    1.9285 H   0  0  0  0  0  0  0  0  0  0  0  0
   -4.1674   -0.3194    0.9459 H   0  0  0  0  0  0  0  0  0  0  0  0
   -2.6473    2.3819    1.4214 H   0  0  0  0  0  0  0  0  0  0  0  0
  1  2  1  0  0  0  0
  1 10  1  0  0  0  0
  2 12  1  0  0  0  0
  3 13  1  0  0  0  0
  3  2  1  0  0  0  0
  4  3  1  6  0  0  0
  4  9  1  0  0  0  0
  5  4  1  0  0  0  0
  6 15  1  6  0  0  0
  6  5  1  0  0  0  0
  6  4  1  0  0  0  0
  6  7  1  0  0  0  0
  7 16  1  6  0  0  0
  7  9  1  0  0  0  0
  7  8  1  0  0  0  0
  8 17  1  0  0  0  0
  9  8  1  0  0  0  0
  9 19  1  1  0  0  0
 11  2  1  0  0  0  0
 14  3  1  0  0  0  0
 18  8  1  0  0  0  0
M TOR 0 0 1 2 3
M TOR 1 0 1 2 12
M TOR 2 0 1 2 13
M TOR 3 1 2 3 4
M TOR 4 1 2 3 5
M TOR 5 1 2 3 8
M TOR 6 2 1 0 9
M TOR 7 2 3 4 5
M TOR 8 2 3 5 6
M TOR 9 2 3 5 14
M TOR 10 2 3 8 6
M TOR 11 2 3 8 7
M TOR 12 2 3 8 18
M TOR 13 3 2 1 10
M TOR 14 3 2 1 11
M TOR 15 3 4 5 6
M TOR 16 3 4 5 14
M TOR 17 3 5 6 7
M TOR 18 3 5 6 8
M TOR 19 3 5 6 15
M TOR 20 3 8 6 7
M TOR 21 3 8 6 15
M TOR 22 3 8 7 16
M TOR 23 3 8 7 17
M TOR 24 4 3 2 12
M TOR 25 4 3 2 13
M TOR 26 4 3 8 6
M TOR 27 4 3 8 7
M TOR 28 4 3 8 18
M TOR 29 4 5 3 8
M TOR 30 4 5 6 7
M TOR 31 4 5 6 8
M TOR 32 4 5 6 15
M TOR 33 5 3 2 12
M TOR 34 5 3 2 13
M TOR 35 5 3 8 7
M TOR 36 5 3 8 18
M TOR 37 5 6 7 8
M TOR 38 5 6 7 16
M TOR 39 5 6 7 17
M TOR 40 5 6 8 18
M TOR 41 6 7 8 18
M TOR 42 6 8 7 16
M TOR 43 6 8 7 17
M TOR 44 7 6 5 14
M TOR 45 7 8 6 15
M TOR 46 8 3 2 12
M TOR 47 8 3 2 13
M TOR 48 8 3 5 14
M TOR 49 8 6 5 14
M  END
$$$$
