gdb 994	1.9313597	1.2053414	0.908147	2.8544	80.35	-0.24514	-0.03293	0.21221	1394.5521	0.152327	-422.548266	-422.537342	-422.536398	-422.586622	37.69
 OpenBabel02181911403D

 19 18  0  0  1  0  0  0  0  0999 V2000
    1.4774    0.1414    0.1948 C   0  0  0  0  0  0  0  0  0  0  0  0
    0.0259    0.0695    0.1081 C   0  0  0  0  0  0  0  0  0  0  0  0
   -1.1758    0.0159    0.0487 C   0  0  0  0  0  0  0  0  0  0  0  0
   -2.6477   -0.0479   -0.0190 C   0  0  2  0  0  0  0  0  0  0  0  0
   -3.1678    0.9188   -1.0915 C   0  0  0  0  0  0  0  0  0  0  0  0
   -3.2424    0.3693    1.2043 O   0  0  0  0  0  0  0  0  0  0  0  0
   -3.0871   -1.4963   -0.3501 C   0  0  0  0  0  0  0  0  0  0  0  0
   -2.8019   -2.5089    0.7332 C   0  0  0  0  0  0  0  0  0  0  0  0
   -2.4891   -2.2455    1.8705 O   0  0  0  0  0  0  0  0  0  0  0  0
    1.8097    0.1381    1.2387 H   0  0  0  0  0  0  0  0  0  0  0  0
    1.9494   -0.7115   -0.3052 H   0  0  0  0  0  0  0  0  0  0  0  0
    1.8605    1.0549   -0.2731 H   0  0  0  0  0  0  0  0  0  0  0  0
   -2.8543    1.9355   -0.8463 H   0  0  0  0  0  0  0  0  0  0  0  0
   -2.7768    0.6571   -2.0780 H   0  0  0  0  0  0  0  0  0  0  0  0
   -4.2609    0.8860   -1.1145 H   0  0  0  0  0  0  0  0  0  0  0  0
   -2.9212   -0.2471    1.8783 H   0  0  0  0  0  0  0  0  0  0  0  0
   -4.1748   -1.5170   -0.5169 H   0  0  0  0  0  0  0  0  0  0  0  0
   -2.6277   -1.8482   -1.2820 H   0  0  0  0  0  0  0  0  0  0  0  0
   -2.9226   -3.5696    0.4203 H   0  0  0  0  0  0  0  0  0  0  0  0
  1 10  1  0  0  0  0
  2  1  1  0  0  0  0
  3  2  3  0  0  0  0
  4  3  1  1  0  0  0
  4  6  1  0  0  0  0
  5 13  1  0  0  0  0
  5  4  1  0  0  0  0
  6 16  1  0  0  0  0
  7  4  1  0  0  0  0
  7  8  1  0  0  0  0
  8  9  2  0  0  0  0
 11  1  1  0  0  0  0
 12  1  1  0  0  0  0
 14  5  1  0  0  0  0
 15  5  1  0  0  0  0
 17  7  1  0  0  0  0
 18  7  1  0  0  0  0
 19  8  1  0  0  0  0
M TOR 0 0 1 2 3
M TOR 1 1 2 3 4
M TOR 2 1 2 3 5
M TOR 3 1 2 3 6
M TOR 4 2 1 0 9
M TOR 5 2 1 0 10
M TOR 6 2 1 0 11
M TOR 7 2 3 4 12
M TOR 8 2 3 4 13
M TOR 9 2 3 4 14
M TOR 10 2 3 5 15
M TOR 11 2 3 6 7
M TOR 12 2 3 6 16
M TOR 13 2 3 6 17
M TOR 14 3 6 7 8
M TOR 15 3 6 7 18
M TOR 16 4 3 5 15
M TOR 17 4 3 6 7
M TOR 18 4 3 6 16
M TOR 19 4 3 6 17
M TOR 20 5 3 4 12
M TOR 21 5 3 4 13
M TOR 22 5 3 4 14
M TOR 23 5 3 6 7
M TOR 24 5 3 6 16
M TOR 25 5 3 6 17
M TOR 26 6 3 4 12
M TOR 27 6 3 4 13
M TOR 28 6 3 4 14
M TOR 29 6 3 5 15
M TOR 30 8 7 6 16
M TOR 31 8 7 6 17
M  END
$$$$
