gdb 3884	2.5681521	1.5973236	1.2299794	2.0308	74.3	-0.25256	0.06979	0.32235	1064.1912	0.157529	-422.538419	-422.530439	-422.529495	-422.570703	31.465
 OpenBabel02181911413D

 19 21  0  0  1  0  0  0  0  0999 V2000
    0.5619   -0.1811    1.0848 O   0  0  0  0  0  0  0  0  0  0  0  0
   -0.6937    0.4667    0.9190 C   0  0  2  0  0  0  0  0  0  0  0  0
   -1.4392    0.7257    2.2522 C   0  0  0  0  0  0  0  0  0  0  0  0
   -2.2932   -0.5272    2.4764 C   0  0  0  0  0  0  0  0  0  0  0  0
   -2.0136   -1.5102    3.5937 C   0  0  0  0  0  0  0  0  0  0  0  0
   -3.2626   -0.6625    3.6155 C   0  0  0  0  0  0  0  0  0  0  0  0
   -2.5838   -1.0534    1.1019 C   0  0  1  0  0  0  0  0  0  0  0  0
   -3.0134   -0.0336    0.1843 O   0  0  0  0  0  0  0  0  0  0  0  0
   -1.6427   -0.4447    0.1489 C   0  0  1  0  0  0  0  0  0  0  0  0
    0.4064   -1.0045    1.5615 H   0  0  0  0  0  0  0  0  0  0  0  0
   -0.4710    1.3950    0.3865 H   0  0  0  0  0  0  0  0  0  0  0  0
   -0.7294    0.9180    3.0606 H   0  0  0  0  0  0  0  0  0  0  0  0
   -2.0848    1.6021    2.1477 H   0  0  0  0  0  0  0  0  0  0  0  0
   -2.1210   -2.5712    3.3897 H   0  0  0  0  0  0  0  0  0  0  0  0
   -1.2196   -1.2700    4.2933 H   0  0  0  0  0  0  0  0  0  0  0  0
   -4.2133   -1.1494    3.4259 H   0  0  0  0  0  0  0  0  0  0  0  0
   -3.3151    0.1507    4.3319 H   0  0  0  0  0  0  0  0  0  0  0  0
   -3.0329   -2.0334    0.9583 H   0  0  0  0  0  0  0  0  0  0  0  0
   -1.3040   -0.9289   -0.7635 H   0  0  0  0  0  0  0  0  0  0  0  0
  1 10  1  0  0  0  0
  2 11  1  6  0  0  0
  2  1  1  0  0  0  0
  2  3  1  0  0  0  0
  3  4  1  0  0  0  0
  3 12  1  0  0  0  0
  4  5  1  0  0  0  0
  4  6  1  0  0  0  0
  5  6  1  0  0  0  0
  5 15  1  0  0  0  0
  6 17  1  0  0  0  0
  7 18  1  6  0  0  0
  7  4  1  0  0  0  0
  8  7  1  0  0  0  0
  9 19  1  6  0  0  0
  9  8  1  0  0  0  0
  9  2  1  0  0  0  0
  9  7  1  0  0  0  0
 13  3  1  0  0  0  0
 14  5  1  0  0  0  0
 16  6  1  0  0  0  0
M TOR 0 0 1 2 3
M TOR 1 0 1 2 11
M TOR 2 0 1 2 12
M TOR 3 0 1 8 6
M TOR 4 0 1 8 7
M TOR 5 0 1 8 18
M TOR 6 1 2 3 4
M TOR 7 1 2 3 5
M TOR 8 1 2 3 6
M TOR 9 1 8 6 3
M TOR 10 1 8 6 7
M TOR 11 1 8 6 17
M TOR 12 2 1 0 9
M TOR 13 2 1 8 6
M TOR 14 2 1 8 7
M TOR 15 2 1 8 18
M TOR 16 2 3 4 5
M TOR 17 2 3 4 13
M TOR 18 2 3 4 14
M TOR 19 2 3 5 15
M TOR 20 2 3 5 16
M TOR 21 2 3 6 7
M TOR 22 2 3 6 8
M TOR 23 2 3 6 17
M TOR 24 3 2 1 8
M TOR 25 3 2 1 10
M TOR 26 3 4 5 15
M TOR 27 3 4 5 16
M TOR 28 3 5 4 13
M TOR 29 3 5 4 14
M TOR 30 3 6 7 8
M TOR 31 3 6 8 18
M TOR 32 4 3 2 11
M TOR 33 4 3 2 12
M TOR 34 4 3 6 7
M TOR 35 4 3 6 8
M TOR 36 4 3 6 17
M TOR 37 4 5 3 6
M TOR 38 5 3 2 11
M TOR 39 5 3 2 12
M TOR 40 5 3 6 7
M TOR 41 5 3 6 8
M TOR 42 5 3 6 17
M TOR 43 6 3 2 11
M TOR 44 6 3 2 12
M TOR 45 6 3 4 13
M TOR 46 6 3 4 14
M TOR 47 6 3 5 15
M TOR 48 6 3 5 16
M TOR 49 6 7 8 18
M TOR 50 6 8 1 10
M TOR 51 7 8 1 10
M TOR 52 7 8 6 17
M TOR 53 8 1 0 9
M TOR 54 8 1 2 11
M TOR 55 8 1 2 12
M  END
$$$$
