
     RDKit          3D

 19 20  0  0  0  0  0  0  0  0999 V2000
    1.3436    0.6635    0.2549 C   0  0  0  0  0  0  0  0  0  0  0  0
   -0.0141    0.0391    0.2896 C   0  0  0  0  0  0  0  0  0  0  0  0
   -0.3376   -1.2582    0.2668 C   0  0  0  0  0  0  0  0  0  0  0  0
   -1.8353   -1.4979    0.3611 C   0  0  0  0  0  0  0  0  0  0  0  0
   -2.2143   -2.2605    1.4967 O   0  0  0  0  0  0  0  0  0  0  0  0
   -2.4134   -0.0696    0.4124 C   0  0  0  0  0  0  0  0  0  0  0  0
   -3.8048    0.2101   -0.0738 C   0  0  0  0  0  0  0  0  0  0  0  0
   -2.0091    0.5777    1.6351 O   0  0  0  0  0  0  0  0  0  0  0  0
   -1.2742    0.8515    0.4072 C   0  0  0  0  0  0  0  0  0  0  0  0
    1.5294    1.2517    1.1623 H   0  0  0  0  0  0  0  0  0  0  0  0
    2.1296   -0.0910    0.1683 H   0  0  0  0  0  0  0  0  0  0  0  0
    1.4419    1.3549   -0.5915 H   0  0  0  0  0  0  0  0  0  0  0  0
    0.3666   -2.0833    0.2625 H   0  0  0  0  0  0  0  0  0  0  0  0
   -2.2208   -2.0498   -0.5044 H   0  0  0  0  0  0  0  0  0  0  0  0
   -2.0018   -1.7022    2.2569 H   0  0  0  0  0  0  0  0  0  0  0  0
   -4.5225   -0.4146    0.4690 H   0  0  0  0  0  0  0  0  0  0  0  0
   -4.0686    1.2585    0.0852 H   0  0  0  0  0  0  0  0  0  0  0  0
   -3.8976   -0.0201   -1.1404 H   0  0  0  0  0  0  0  0  0  0  0  0
   -1.3324    1.8813    0.0645 H   0  0  0  0  0  0  0  0  0  0  0  0
  1  2  1  0
  2  3  2  0
  3  4  1  0
  4  5  1  0
  4  6  1  0
  6  7  1  0
  6  8  1  0
  8  9  1  0
  9  2  1  0
  9  6  1  0
  1 10  1  0
  1 11  1  0
  1 12  1  0
  3 13  1  0
  4 14  1  0
  5 15  1  0
  7 16  1  0
  7 17  1  0
  7 18  1  0
  9 19  1  0
M  END
$$$$
