gdb 3436	2.5849067	1.5128878	1.1115216	2.4402	77.58	-0.22171	0.00285	0.22455999999999998	1134.8874	0.156487	-422.563111	-422.554481	-422.553536	-422.595735	33.862
 OpenBabel02181911413D

 19 20  0  0  1  0  0  0  0  0999 V2000
    1.1541    0.6445   -0.4043 C   0  0  0  0  0  0  0  0  0  0  0  0
   -0.1718    0.0550   -0.0402 C   0  0  0  0  0  0  0  0  0  0  0  0
   -1.3471    0.7004    0.0391 C   0  0  0  0  0  0  0  0  0  0  0  0
   -2.4846   -0.2198    0.3967 C   0  0  1  0  0  0  0  0  0  0  0  0
   -3.4250   -0.3950   -0.6786 O   0  0  0  0  0  0  0  0  0  0  0  0
   -1.7915   -1.5585    0.7015 C   0  0  2  0  0  0  0  0  0  0  0  0
   -2.5270   -2.7008    0.4298 O   0  0  0  0  0  0  0  0  0  0  0  0
   -0.7826   -1.6076    1.7928 C   0  0  0  0  0  0  0  0  0  0  0  0
   -0.3196   -1.3798    0.3468 C   0  0  2  0  0  0  0  0  0  0  0  0
    1.8697    0.5366    0.4201 H   0  0  0  0  0  0  0  0  0  0  0  0
    1.5910    0.1206   -1.2636 H   0  0  0  0  0  0  0  0  0  0  0  0
    1.0727    1.7054   -0.6551 H   0  0  0  0  0  0  0  0  0  0  0  0
   -1.4953    1.7602   -0.1356 H   0  0  0  0  0  0  0  0  0  0  0  0
   -3.0858    0.1295    1.2430 H   0  0  0  0  0  0  0  0  0  0  0  0
   -2.9227   -0.3106   -1.4977 H   0  0  0  0  0  0  0  0  0  0  0  0
   -3.1634   -2.4260   -0.2469 H   0  0  0  0  0  0  0  0  0  0  0  0
   -0.6933   -0.7855    2.4970 H   0  0  0  0  0  0  0  0  0  0  0  0
   -0.5998   -2.5944    2.2066 H   0  0  0  0  0  0  0  0  0  0  0  0
    0.2708   -2.1531   -0.1320 H   0  0  0  0  0  0  0  0  0  0  0  0
  1  2  1  0  0  0  0
  1 10  1  0  0  0  0
  2  3  2  0  0  0  0
  2  9  1  0  0  0  0
  3  4  1  0  0  0  0
  4  6  1  0  0  0  0
  4 14  1  1  0  0  0
  5  4  1  0  0  0  0
  6  7  1  6  0  0  0
  6  8  1  0  0  0  0
  8 18  1  0  0  0  0
  8 17  1  0  0  0  0
  9 19  1  6  0  0  0
  9  6  1  0  0  0  0
  9  8  1  0  0  0  0
 11  1  1  0  0  0  0
 12  1  1  0  0  0  0
 13  3  1  0  0  0  0
 15  5  1  0  0  0  0
 16  7  1  0  0  0  0
M TOR 0 0 1 2 3
M TOR 1 0 1 2 12
M TOR 2 0 1 8 5
M TOR 3 0 1 8 7
M TOR 4 0 1 8 18
M TOR 5 1 2 3 4
M TOR 6 1 2 3 5
M TOR 7 1 2 3 13
M TOR 8 1 8 5 3
M TOR 9 1 8 5 6
M TOR 10 1 8 5 7
M TOR 11 1 8 7 16
M TOR 12 1 8 7 17
M TOR 13 2 1 0 9
M TOR 14 2 1 0 10
M TOR 15 2 1 0 11
M TOR 16 2 1 8 5
M TOR 17 2 1 8 7
M TOR 18 2 1 8 18
M TOR 19 2 3 4 14
M TOR 20 2 3 5 6
M TOR 21 2 3 5 7
M TOR 22 2 3 5 8
M TOR 23 3 2 1 8
M TOR 24 3 5 6 15
M TOR 25 3 5 7 8
M TOR 26 3 5 7 16
M TOR 27 3 5 7 17
M TOR 28 3 5 8 18
M TOR 29 4 3 2 12
M TOR 30 4 3 5 6
M TOR 31 4 3 5 7
M TOR 32 4 3 5 8
M TOR 33 5 3 2 12
M TOR 34 5 3 4 14
M TOR 35 5 7 8 18
M TOR 36 5 8 7 16
M TOR 37 5 8 7 17
M TOR 38 6 5 3 13
M TOR 39 6 5 7 8
M TOR 40 6 5 7 16
M TOR 41 6 5 7 17
M TOR 42 6 5 8 18
M TOR 43 7 5 3 13
M TOR 44 7 5 6 15
M TOR 45 8 1 0 9
M TOR 46 8 1 0 10
M TOR 47 8 1 0 11
M TOR 48 8 1 2 12
M TOR 49 8 5 3 13
M TOR 50 8 5 6 15
M  END
$$$$
