
     RDKit          3D

 19 19  0  0  0  0  0  0  0  0999 V2000
    1.3107   -0.3074    0.0141 O   0  0  0  0  0  0  0  0  0  0  0  0
    0.1217   -0.1522    0.1244 C   0  0  0  0  0  0  0  0  0  0  0  0
   -0.5308    0.6559    1.2497 C   0  0  0  0  0  0  0  0  0  0  0  0
   -1.1791    1.9659    0.7348 C   0  0  0  0  0  0  0  0  0  0  0  0
   -2.1268    1.7959   -0.4651 C   0  0  0  0  0  0  0  0  0  0  0  0
   -2.8229    0.5644   -0.4966 O   0  0  0  0  0  0  0  0  0  0  0  0
   -3.5965    0.2652    0.6488 C   0  0  0  0  0  0  0  0  0  0  0  0
   -2.8114   -0.3501    1.7806 C   0  0  0  0  0  0  0  0  0  0  0  0
   -1.5072   -0.2087    2.0199 C   0  0  0  0  0  0  0  0  0  0  0  0
   -0.5982   -0.6028   -0.5892 H   0  0  0  0  0  0  0  0  0  0  0  0
    0.2894    0.9291    1.9211 H   0  0  0  0  0  0  0  0  0  0  0  0
   -1.7149    2.4109    1.5800 H   0  0  0  0  0  0  0  0  0  0  0  0
   -0.3947    2.6772    0.4517 H   0  0  0  0  0  0  0  0  0  0  0  0
   -2.8360    2.6390   -0.4911 H   0  0  0  0  0  0  0  0  0  0  0  0
   -1.5629    1.8156   -1.4027 H   0  0  0  0  0  0  0  0  0  0  0  0
   -4.1447    1.1595    0.9944 H   0  0  0  0  0  0  0  0  0  0  0  0
   -4.3572   -0.4519    0.3182 H   0  0  0  0  0  0  0  0  0  0  0  0
   -3.3968   -0.9821    2.4461 H   0  0  0  0  0  0  0  0  0  0  0  0
   -1.0757   -0.7600    2.8516 H   0  0  0  0  0  0  0  0  0  0  0  0
  1  2  2  0
  2  3  1  0
  3  4  1  0
  4  5  1  0
  5  6  1  0
  6  7  1  0
  7  8  1  0
  8  9  2  0
  9  3  1  0
  2 10  1  0
  3 11  1  0
  4 12  1  0
  4 13  1  0
  5 14  1  0
  5 15  1  0
  7 16  1  0
  7 17  1  0
  8 18  1  0
  9 19  1  0
M  END
$$$$
