
     RDKit          3D

 19 19  0  0  0  0  0  0  0  0999 V2000
    5.2549    0.5799    1.2991 C   0  0  0  0  0  0  0  0  0  0  0  0
    4.3920    1.5460    0.5190 C   0  0  0  0  0  0  0  0  0  0  0  0
    5.1609    2.6081   -0.2563 C   0  0  0  0  0  0  0  0  0  0  0  0
    6.0231    2.0535   -1.2394 O   0  0  0  0  0  0  0  0  0  0  0  0
    3.2453    2.0807    1.2031 O   0  0  0  0  0  0  0  0  0  0  0  0
    3.0240    1.2279    0.0754 C   0  0  0  0  0  0  0  0  0  0  0  0
    2.3188   -0.0963    0.3241 C   0  0  0  0  0  0  0  0  0  0  0  0
    0.8667    0.0480    0.3476 C   0  0  0  0  0  0  0  0  0  0  0  0
   -0.3267    0.1860    0.3533 C   0  0  0  0  0  0  0  0  0  0  0  0
    4.6619   -0.1219    1.8866 H   0  0  0  0  0  0  0  0  0  0  0  0
    5.8946    0.0068    0.6198 H   0  0  0  0  0  0  0  0  0  0  0  0
    5.9006    1.1306    1.9931 H   0  0  0  0  0  0  0  0  0  0  0  0
    4.4497    3.2509   -0.7827 H   0  0  0  0  0  0  0  0  0  0  0  0
    5.7123    3.2422    0.4547 H   0  0  0  0  0  0  0  0  0  0  0  0
    6.8268    1.7572   -0.8031 H   0  0  0  0  0  0  0  0  0  0  0  0
    2.6551    1.7514   -0.8082 H   0  0  0  0  0  0  0  0  0  0  0  0
    2.6046   -0.7979   -0.4714 H   0  0  0  0  0  0  0  0  0  0  0  0
    2.6606   -0.5297    1.2686 H   0  0  0  0  0  0  0  0  0  0  0  0
   -1.3818    0.3036    0.3690 H   0  0  0  0  0  0  0  0  0  0  0  0
  1  2  1  0
  2  3  1  0
  3  4  1  0
  2  5  1  0
  5  6  1  0
  6  7  1  0
  7  8  1  0
  8  9  3  0
  6  2  1  0
  1 10  1  0
  1 11  1  0
  1 12  1  0
  3 13  1  0
  3 14  1  0
  4 15  1  0
  6 16  1  0
  7 17  1  0
  7 18  1  0
  9 19  1  0
M  END
$$$$
