gdb 1318	5.7400756	0.7081838	0.6606458	2.8224	80.7	-0.25672	0.01055	0.26727	1691.4738	0.153792	-422.504713	-422.494767	-422.493823	-422.539846	36.183
 OpenBabel02181911403D

 19 19  0  0  1  0  0  0  0  0999 V2000
    4.7070   -1.6289   -4.1207 C   0  0  0  0  0  0  0  0  0  0  0  0
    4.3103   -0.9632   -2.8086 C   0  0  2  0  0  0  0  0  0  0  0  0
    5.0623   -1.5877   -1.7805 O   0  0  0  0  0  0  0  0  0  0  0  0
    2.7987   -1.0843   -2.5310 C   0  0  0  0  0  0  0  0  0  0  0  0
    2.3684   -0.2338   -1.3589 C   0  0  2  0  0  0  0  0  0  0  0  0
    2.9897   -0.5175   -0.0937 O   0  0  0  0  0  0  0  0  0  0  0  0
    1.5766   -0.7711   -0.2313 C   0  0  1  0  0  0  0  0  0  0  0  0
    0.6883    0.0534    0.5411 C   0  0  0  0  0  0  0  0  0  0  0  0
   -0.0731    0.7236    1.1854 C   0  0  0  0  0  0  0  0  0  0  0  0
    4.4113   -2.6831   -4.1189 H   0  0  0  0  0  0  0  0  0  0  0  0
    4.2351   -1.1317   -4.9736 H   0  0  0  0  0  0  0  0  0  0  0  0
    5.7920   -1.5818   -4.2458 H   0  0  0  0  0  0  0  0  0  0  0  0
    4.5650    0.1106   -2.8683 H   0  0  0  0  0  0  0  0  0  0  0  0
    4.6735   -1.3340   -0.9341 H   0  0  0  0  0  0  0  0  0  0  0  0
    2.2276   -0.7713   -3.4131 H   0  0  0  0  0  0  0  0  0  0  0  0
    2.5725   -2.1398   -2.3419 H   0  0  0  0  0  0  0  0  0  0  0  0
    2.2780    0.8355   -1.5518 H   0  0  0  0  0  0  0  0  0  0  0  0
    1.3230   -1.8300   -0.2611 H   0  0  0  0  0  0  0  0  0  0  0  0
   -0.7416    1.3200    1.7563 H   0  0  0  0  0  0  0  0  0  0  0  0
  1 10  1  0  0  0  0
  1  2  1  0  0  0  0
  2 13  1  6  0  0  0
  2  4  1  0  0  0  0
  2  3  1  0  0  0  0
  3 14  1  0  0  0  0
  4 16  1  0  0  0  0
  4  5  1  0  0  0  0
  5 17  1  6  0  0  0
  5  7  1  0  0  0  0
  5  6  1  0  0  0  0
  7 18  1  6  0  0  0
  7  6  1  0  0  0  0
  7  8  1  0  0  0  0
  8  9  3  0  0  0  0
  9 19  1  0  0  0  0
 11  1  1  0  0  0  0
 12  1  1  0  0  0  0
 15  4  1  0  0  0  0
M TOR 0 0 1 2 13
M TOR 1 0 1 3 4
M TOR 2 0 1 3 14
M TOR 3 0 1 3 15
M TOR 4 1 3 4 5
M TOR 5 1 3 4 6
M TOR 6 1 3 4 16
M TOR 7 2 1 0 9
M TOR 8 2 1 0 10
M TOR 9 2 1 0 11
M TOR 10 2 1 3 4
M TOR 11 2 1 3 14
M TOR 12 2 1 3 15
M TOR 13 3 1 0 9
M TOR 14 3 1 0 10
M TOR 15 3 1 0 11
M TOR 16 3 1 2 13
M TOR 17 3 4 5 6
M TOR 18 3 4 6 7
M TOR 19 3 4 6 17
M TOR 20 4 3 1 12
M TOR 21 4 5 6 7
M TOR 22 4 5 6 17
M TOR 23 4 6 7 8
M TOR 24 5 4 3 14
M TOR 25 5 4 3 15
M TOR 26 5 6 4 16
M TOR 27 5 6 7 8
M TOR 28 6 4 3 14
M TOR 29 6 4 3 15
M TOR 30 6 7 8 18
M TOR 31 7 6 4 16
M TOR 32 8 7 6 17
M  END
$$$$
