gdb 2099	2.365612	1.9535851	1.3893169	1.2586	74.96	-0.22853	0.08512	0.31365	1003.576	0.155836	-422.514177	-422.505948	-422.505004	-422.546404	31.827
 OpenBabel02181911403D

 19 21  0  0  1  0  0  0  0  0999 V2000
    4.7267    0.3524    0.0559 C   0  0  0  0  0  0  0  0  0  0  0  0
    3.2635    0.0917   -0.1011 C   0  0  2  0  0  0  0  0  0  0  0  0
    2.3051    0.8854    0.6837 O   0  0  0  0  0  0  0  0  0  0  0  0
    1.4474   -0.0266   -0.0888 C   0  0  2  0  0  0  0  0  0  0  0  0
   -0.0350    0.0421    0.0880 C   0  0  0  0  0  0  0  0  0  0  0  0
    2.4384   -1.2149    0.1473 C   0  0  1  0  0  0  0  0  0  0  0  0
    2.4825   -2.0242   -1.1370 C   0  0  0  0  0  0  0  0  0  0  0  0
    2.4075   -0.9771   -2.1343 O   0  0  0  0  0  0  0  0  0  0  0  0
    2.3368    0.1891   -1.3502 C   0  0  2  0  0  0  0  0  0  0  0  0
    5.0557    0.1419    1.0783 H   0  0  0  0  0  0  0  0  0  0  0  0
    5.2970   -0.2817   -0.6303 H   0  0  0  0  0  0  0  0  0  0  0  0
    4.9557    1.3979   -0.1726 H   0  0  0  0  0  0  0  0  0  0  0  0
   -0.3202   -0.2088    1.1145 H   0  0  0  0  0  0  0  0  0  0  0  0
   -0.4008    1.0489   -0.1362 H   0  0  0  0  0  0  0  0  0  0  0  0
   -0.5274   -0.6611   -0.5912 H   0  0  0  0  0  0  0  0  0  0  0  0
    2.4770   -1.7074    1.1181 H   0  0  0  0  0  0  0  0  0  0  0  0
    3.4110   -2.5936   -1.2669 H   0  0  0  0  0  0  0  0  0  0  0  0
    1.6341   -2.7094   -1.2549 H   0  0  0  0  0  0  0  0  0  0  0  0
    2.2738    1.0933   -1.9530 H   0  0  0  0  0  0  0  0  0  0  0  0
  1 10  1  0  0  0  0
  2  1  1  1  0  0  0
  2  6  1  0  0  0  0
  2  3  1  0  0  0  0
  4  5  1  1  0  0  0
  4  6  1  0  0  0  0
  4  3  1  0  0  0  0
  5 13  1  0  0  0  0
  6 16  1  1  0  0  0
  7  6  1  0  0  0  0
  8  9  1  0  0  0  0
  8  7  1  0  0  0  0
  9 19  1  6  0  0  0
  9  2  1  0  0  0  0
  9  4  1  0  0  0  0
 11  1  1  0  0  0  0
 12  1  1  0  0  0  0
 14  5  1  0  0  0  0
 15  5  1  0  0  0  0
 17  7  1  0  0  0  0
 18  7  1  0  0  0  0
M TOR 0 0 1 2 3
M TOR 1 0 1 5 3
M TOR 2 0 1 5 6
M TOR 3 0 1 5 15
M TOR 4 0 1 8 3
M TOR 5 0 1 8 7
M TOR 6 0 1 8 18
M TOR 7 1 2 3 4
M TOR 8 1 2 3 5
M TOR 9 1 2 3 8
M TOR 10 1 5 3 4
M TOR 11 1 5 3 8
M TOR 12 1 5 6 7
M TOR 13 1 5 6 16
M TOR 14 1 5 6 17
M TOR 15 1 8 3 4
M TOR 16 1 8 7 6
M TOR 17 2 1 0 9
M TOR 18 2 1 0 10
M TOR 19 2 1 0 11
M TOR 20 2 1 5 6
M TOR 21 2 1 5 15
M TOR 22 2 1 8 7
M TOR 23 2 1 8 18
M TOR 24 2 3 4 12
M TOR 25 2 3 4 13
M TOR 26 2 3 4 14
M TOR 27 2 3 5 6
M TOR 28 2 3 5 15
M TOR 29 2 3 8 7
M TOR 30 2 3 8 18
M TOR 31 3 5 6 7
M TOR 32 3 5 6 16
M TOR 33 3 5 6 17
M TOR 34 3 8 7 6
M TOR 35 4 3 5 6
M TOR 36 4 3 5 15
M TOR 37 4 3 8 7
M TOR 38 4 3 8 18
M TOR 39 5 1 0 9
M TOR 40 5 1 0 10
M TOR 41 5 1 0 11
M TOR 42 5 1 8 7
M TOR 43 5 1 8 18
M TOR 44 5 3 4 12
M TOR 45 5 3 4 13
M TOR 46 5 3 4 14
M TOR 47 5 3 8 7
M TOR 48 5 3 8 18
M TOR 49 5 6 7 8
M TOR 50 6 5 1 8
M TOR 51 6 5 3 8
M TOR 52 6 7 8 18
M TOR 53 7 6 5 15
M TOR 54 8 1 0 9
M TOR 55 8 1 0 10
M TOR 56 8 1 0 11
M TOR 57 8 1 5 15
M TOR 58 8 3 4 12
M TOR 59 8 3 4 13
M TOR 60 8 3 4 14
M TOR 61 8 3 5 15
M TOR 62 8 7 6 16
M TOR 63 8 7 6 17
M  END
$$$$
