gdb 1891	2.8654567	1.3289377	1.1990463	1.9813	76.58	-0.23126	0.06403	0.29529	1133.2258	0.155668	-422.490032	-422.481423	-422.480479	-422.523418	32.109
 OpenBabel02181911403D

 19 21  0  0  1  0  0  0  0  0999 V2000
   -1.7765   -2.0352    1.6663 C   0  0  0  0  0  0  0  0  0  0  0  0
   -1.6393   -1.9734    0.1740 C   0  0  1  0  0  0  0  0  0  0  0  0
   -2.4208   -1.0301   -0.7227 C   0  0  0  0  0  0  0  0  0  0  0  0
   -0.9188   -1.0042   -0.7530 C   0  0  2  0  0  0  0  0  0  0  0  0
   -0.4350   -2.0537   -1.5968 O   0  0  0  0  0  0  0  0  0  0  0  0
   -1.0106   -3.0496   -0.7072 C   0  0  0  0  0  0  0  0  0  0  0  0
   -0.0535    0.1730   -0.5343 C   0  0  2  0  0  0  0  0  0  0  0  0
    1.1086    0.4299   -1.3976 C   0  0  0  0  0  0  0  0  0  0  0  0
    1.2800   -0.0771   -0.0743 O   0  0  0  0  0  0  0  0  0  0  0  0
   -2.5986   -2.6982    1.9622 H   0  0  0  0  0  0  0  0  0  0  0  0
   -0.8590   -2.4065    2.1351 H   0  0  0  0  0  0  0  0  0  0  0  0
   -1.9884   -1.0464    2.0850 H   0  0  0  0  0  0  0  0  0  0  0  0
   -2.9566   -1.3923   -1.5965 H   0  0  0  0  0  0  0  0  0  0  0  0
   -2.8988   -0.2082   -0.1968 H   0  0  0  0  0  0  0  0  0  0  0  0
   -1.6802   -3.7383   -1.2361 H   0  0  0  0  0  0  0  0  0  0  0  0
   -0.2182   -3.6131   -0.2011 H   0  0  0  0  0  0  0  0  0  0  0  0
   -0.5441    1.0190   -0.0528 H   0  0  0  0  0  0  0  0  0  0  0  0
    1.3309   -0.2758   -2.1945 H   0  0  0  0  0  0  0  0  0  0  0  0
    1.4409    1.4547   -1.5583 H   0  0  0  0  0  0  0  0  0  0  0  0
  1 10  1  0  0  0  0
  1 12  1  0  0  0  0
  1 11  1  0  0  0  0
  2  1  1  1  0  0  0
  3 14  1  0  0  0  0
  3  2  1  0  0  0  0
  4  5  1  6  0  0  0
  4  3  1  0  0  0  0
  4  7  1  0  0  0  0
  4  2  1  0  0  0  0
  5  6  1  0  0  0  0
  6 16  1  0  0  0  0
  6  2  1  0  0  0  0
  7  9  1  0  0  0  0
  7 17  1  1  0  0  0
  8  7  1  0  0  0  0
  8  9  1  0  0  0  0
 13  3  1  0  0  0  0
 15  6  1  0  0  0  0
 18  8  1  0  0  0  0
 19  8  1  0  0  0  0
M TOR 0 0 1 2 3
M TOR 1 0 1 2 12
M TOR 2 0 1 2 13
M TOR 3 0 1 3 4
M TOR 4 0 1 3 6
M TOR 5 0 1 5 4
M TOR 6 0 1 5 14
M TOR 7 0 1 5 15
M TOR 8 1 2 3 4
M TOR 9 1 2 3 6
M TOR 10 1 3 2 12
M TOR 11 1 3 2 13
M TOR 12 1 3 4 5
M TOR 13 1 3 6 7
M TOR 14 1 3 6 8
M TOR 15 1 3 6 16
M TOR 16 2 1 0 9
M TOR 17 2 1 0 10
M TOR 18 2 1 0 11
M TOR 19 2 1 5 4
M TOR 20 2 1 5 14
M TOR 21 2 1 5 15
M TOR 22 2 3 1 5
M TOR 23 2 3 4 5
M TOR 24 2 3 6 7
M TOR 25 2 3 6 8
M TOR 26 2 3 6 16
M TOR 27 3 1 0 9
M TOR 28 3 1 0 10
M TOR 29 3 1 0 11
M TOR 30 3 1 5 14
M TOR 31 3 1 5 15
M TOR 32 3 4 5 14
M TOR 33 3 4 5 15
M TOR 34 3 6 7 8
M TOR 35 3 6 7 17
M TOR 36 3 6 7 18
M TOR 37 4 3 2 12
M TOR 38 4 3 2 13
M TOR 39 4 3 6 7
M TOR 40 4 3 6 8
M TOR 41 4 3 6 16
M TOR 42 5 1 0 9
M TOR 43 5 1 0 10
M TOR 44 5 1 0 11
M TOR 45 5 1 2 12
M TOR 46 5 1 2 13
M TOR 47 5 1 3 6
M TOR 48 5 4 3 6
M TOR 49 6 3 2 12
M TOR 50 6 3 2 13
M TOR 51 6 8 7 17
M TOR 52 6 8 7 18
M TOR 53 7 8 6 16
M  END
$$$$
