gdb 1746	2.2131536	1.8625009	1.8109856	2.457	73.35	-0.23963	0.0602	0.29983	930.4422	0.158392	-422.542444	-422.534845	-422.533901	-422.574396	29.925
 OpenBabel02181911403D

 19 21  0  0  1  0  0  0  0  0999 V2000
    0.3506    0.2538    0.0248 O   0  0  0  0  0  0  0  0  0  0  0  0
   -0.4806    0.8949    0.9320 C   0  0  2  0  0  0  0  0  0  0  0  0
   -1.3090    0.1001    2.0072 C   0  0  2  0  0  0  0  0  0  0  0  0
   -2.6164    0.6626    1.3523 C   0  0  0  0  0  0  0  0  0  0  0  0
   -1.7716    1.6371    0.5145 C   0  0  1  0  0  0  0  0  0  0  0  0
   -1.3696    2.7920    1.2895 O   0  0  0  0  0  0  0  0  0  0  0  0
   -0.0959    2.1961    1.6709 C   0  0  1  0  0  0  0  0  0  0  0  0
   -0.0109    1.8939    3.1603 C   0  0  0  0  0  0  0  0  0  0  0  0
   -0.9482    0.6731    3.3995 C   0  0  0  0  0  0  0  0  0  0  0  0
    0.9345   -0.3410    0.5081 H   0  0  0  0  0  0  0  0  0  0  0  0
   -1.2210   -0.9870    1.9527 H   0  0  0  0  0  0  0  0  0  0  0  0
   -3.1106   -0.0853    0.7248 H   0  0  0  0  0  0  0  0  0  0  0  0
   -3.3507    1.1199    2.0206 H   0  0  0  0  0  0  0  0  0  0  0  0
   -2.0633    1.8947   -0.5055 H   0  0  0  0  0  0  0  0  0  0  0  0
    0.7441    2.7731    1.2687 H   0  0  0  0  0  0  0  0  0  0  0  0
    1.0270    1.6428    3.4118 H   0  0  0  0  0  0  0  0  0  0  0  0
   -0.2843    2.7658    3.7613 H   0  0  0  0  0  0  0  0  0  0  0  0
   -0.4513   -0.0781    4.0208 H   0  0  0  0  0  0  0  0  0  0  0  0
   -1.8540    0.9684    3.9363 H   0  0  0  0  0  0  0  0  0  0  0  0
  1 10  1  0  0  0  0
  2  1  1  6  0  0  0
  2  7  1  0  0  0  0
  2  3  1  0  0  0  0
  3 11  1  6  0  0  0
  3  9  1  0  0  0  0
  4  3  1  0  0  0  0
  4 13  1  0  0  0  0
  5 14  1  6  0  0  0
  5  2  1  0  0  0  0
  5  6  1  0  0  0  0
  5  4  1  0  0  0  0
  6  7  1  0  0  0  0
  7 15  1  6  0  0  0
  7  8  1  0  0  0  0
  8  9  1  0  0  0  0
  8 16  1  0  0  0  0
  8 17  1  0  0  0  0
  9 19  1  0  0  0  0
  9 18  1  0  0  0  0
 12  4  1  0  0  0  0
M TOR 0 0 1 2 3
M TOR 1 0 1 2 8
M TOR 2 0 1 2 10
M TOR 3 0 1 4 3
M TOR 4 0 1 4 5
M TOR 5 0 1 4 13
M TOR 6 0 1 6 5
M TOR 7 0 1 6 7
M TOR 8 0 1 6 14
M TOR 9 1 2 3 4
M TOR 10 1 2 3 11
M TOR 11 1 2 3 12
M TOR 12 1 2 8 7
M TOR 13 1 2 8 17
M TOR 14 1 2 8 18
M TOR 15 1 4 3 11
M TOR 16 1 4 3 12
M TOR 17 1 4 5 6
M TOR 18 1 6 7 8
M TOR 19 1 6 7 15
M TOR 20 1 6 7 16
M TOR 21 2 1 0 9
M TOR 22 2 1 4 5
M TOR 23 2 1 4 13
M TOR 24 2 1 6 5
M TOR 25 2 1 6 7
M TOR 26 2 1 6 14
M TOR 27 2 3 4 5
M TOR 28 2 3 4 13
M TOR 29 2 8 7 6
M TOR 30 2 8 7 15
M TOR 31 2 8 7 16
M TOR 32 3 2 1 6
M TOR 33 3 2 8 7
M TOR 34 3 2 8 17
M TOR 35 3 2 8 18
M TOR 36 3 4 1 6
M TOR 37 3 4 5 6
M TOR 38 4 1 0 9
M TOR 39 4 1 2 8
M TOR 40 4 1 2 10
M TOR 41 4 1 6 7
M TOR 42 4 1 6 14
M TOR 43 4 3 2 8
M TOR 44 4 3 2 10
M TOR 45 4 5 6 7
M TOR 46 4 5 6 14
M TOR 47 5 4 3 11
M TOR 48 5 4 3 12
M TOR 49 5 6 7 8
M TOR 50 5 6 7 15
M TOR 51 5 6 7 16
M TOR 52 6 1 0 9
M TOR 53 6 1 2 8
M TOR 54 6 1 2 10
M TOR 55 6 1 4 13
M TOR 56 6 5 4 13
M TOR 57 6 7 8 17
M TOR 58 6 7 8 18
M TOR 59 7 8 2 10
M TOR 60 8 2 3 11
M TOR 61 8 2 3 12
M TOR 62 8 7 6 14
M  END
$$$$
