gdb 525	2.8075194	1.8899367	1.7259619	2.1909	73.9	-0.24392	0.07228	0.3162	895.7507	0.160011	-422.517769	-422.511121	-422.510177	-422.54833	27.768
 OpenBabel02181911403D

 19 21  0  0  1  0  0  0  0  0999 V2000
   -0.3729    1.2792    0.0971 C   0  0  0  0  0  0  0  0  0  0  0  0
   -0.1882   -0.0957   -0.3800 O   0  0  0  0  0  0  0  0  0  0  0  0
    1.2284    0.0261   -0.0792 C   0  0  1  0  0  0  0  0  0  0  0  0
    2.4461   -0.0512   -1.0021 C   0  0  2  0  0  0  0  0  0  0  0  0
    3.3743    0.9002   -0.1420 C   0  0  0  0  0  0  0  0  0  0  0  0
    2.4138    2.0189    0.4749 C   0  0  0  0  0  0  0  0  0  0  0  0
    1.1233    1.5344   -0.1647 C   0  0  2  0  0  0  0  0  0  0  0  0
    1.2358    1.8303   -1.5722 O   0  0  0  0  0  0  0  0  0  0  0  0
    1.9577    0.7568   -2.1972 C   0  0  0  0  0  0  0  0  0  0  0  0
   -1.0769    1.8378   -0.5222 H   0  0  0  0  0  0  0  0  0  0  0  0
   -0.6727    1.2929    1.1522 H   0  0  0  0  0  0  0  0  0  0  0  0
    1.4345   -0.3768    0.9197 H   0  0  0  0  0  0  0  0  0  0  0  0
    2.8926   -1.0184   -1.2339 H   0  0  0  0  0  0  0  0  0  0  0  0
    3.8678    0.3361    0.6536 H   0  0  0  0  0  0  0  0  0  0  0  0
    4.1558    1.3347   -0.7696 H   0  0  0  0  0  0  0  0  0  0  0  0
    2.4015    1.9747    1.5673 H   0  0  0  0  0  0  0  0  0  0  0  0
    2.6978    3.0248    0.1625 H   0  0  0  0  0  0  0  0  0  0  0  0
    1.2872    0.1775   -2.8451 H   0  0  0  0  0  0  0  0  0  0  0  0
    2.7718    1.1689   -2.8052 H   0  0  0  0  0  0  0  0  0  0  0  0
  1 11  1  0  0  0  0
  2  3  1  0  0  0  0
  2  1  1  0  0  0  0
  3 12  1  1  0  0  0
  4 13  1  6  0  0  0
  4  5  1  0  0  0  0
  4  3  1  0  0  0  0
  5  6  1  0  0  0  0
  5 14  1  0  0  0  0
  6 16  1  0  0  0  0
  7  8  1  6  0  0  0
  7  3  1  0  0  0  0
  7  1  1  0  0  0  0
  7  6  1  0  0  0  0
  9  8  1  0  0  0  0
  9  4  1  0  0  0  0
 10  1  1  0  0  0  0
 15  5  1  0  0  0  0
 17  6  1  0  0  0  0
 18  9  1  0  0  0  0
 19  9  1  0  0  0  0
M TOR 0 0 1 2 3
M TOR 1 0 1 2 6
M TOR 2 0 1 2 11
M TOR 3 0 6 2 3
M TOR 4 0 6 2 11
M TOR 5 0 6 5 4
M TOR 6 0 6 5 15
M TOR 7 0 6 5 16
M TOR 8 0 6 7 8
M TOR 9 1 0 6 5
M TOR 10 1 0 6 7
M TOR 11 1 2 3 4
M TOR 12 1 2 3 8
M TOR 13 1 2 3 12
M TOR 14 1 2 6 5
M TOR 15 1 2 6 7
M TOR 16 2 1 0 9
M TOR 17 2 1 0 10
M TOR 18 2 3 4 5
M TOR 19 2 3 4 13
M TOR 20 2 3 4 14
M TOR 21 2 3 8 7
M TOR 22 2 3 8 17
M TOR 23 2 3 8 18
M TOR 24 2 6 0 9
M TOR 25 2 6 0 10
M TOR 26 2 6 5 4
M TOR 27 2 6 5 15
M TOR 28 2 6 5 16
M TOR 29 2 6 7 8
M TOR 30 3 2 6 5
M TOR 31 3 2 6 7
M TOR 32 3 4 5 6
M TOR 33 3 4 5 15
M TOR 34 3 4 5 16
M TOR 35 3 8 7 6
M TOR 36 4 3 2 6
M TOR 37 4 3 2 11
M TOR 38 4 3 8 7
M TOR 39 4 3 8 17
M TOR 40 4 3 8 18
M TOR 41 4 5 6 7
M TOR 42 5 4 3 8
M TOR 43 5 4 3 12
M TOR 44 5 6 0 9
M TOR 45 5 6 0 10
M TOR 46 5 6 2 11
M TOR 47 5 6 7 8
M TOR 48 6 2 3 8
M TOR 49 6 2 3 12
M TOR 50 6 5 4 13
M TOR 51 6 5 4 14
M TOR 52 6 7 8 17
M TOR 53 6 7 8 18
M TOR 54 7 6 0 9
M TOR 55 7 6 0 10
M TOR 56 7 6 2 11
M TOR 57 7 6 5 15
M TOR 58 7 6 5 16
M TOR 59 7 8 3 12
M TOR 60 8 3 2 11
M TOR 61 8 3 4 13
M TOR 62 8 3 4 14
M  END
$$$$
