
     RDKit          3D

 19 20  0  0  0  0  0  0  0  0999 V2000
    0.2305    1.0878    3.7540 O   0  0  0  0  0  0  0  0  0  0  0  0
    0.3362    1.1981    2.5626 C   0  0  0  0  0  0  0  0  0  0  0  0
   -0.3652    0.1984    1.6370 C   0  0  0  0  0  0  0  0  0  0  0  0
   -0.0593    0.1614    0.1456 C   0  0  0  0  0  0  0  0  0  0  0  0
    1.4618    0.1192   -0.1610 C   0  0  0  0  0  0  0  0  0  0  0  0
    1.4125    1.6614   -0.3308 C   0  0  0  0  0  0  0  0  0  0  0  0
   -0.1204    1.5496   -0.5528 C   0  0  0  0  0  0  0  0  0  0  0  0
    1.7894    2.4403    0.9181 C   0  0  0  0  0  0  0  0  0  0  0  0
    0.9468    2.3118    2.0737 O   0  0  0  0  0  0  0  0  0  0  0  0
   -0.1871   -0.7846    2.0850 H   0  0  0  0  0  0  0  0  0  0  0  0
   -1.4337    0.4018    1.7886 H   0  0  0  0  0  0  0  0  0  0  0  0
   -0.6635   -0.6277   -0.3097 H   0  0  0  0  0  0  0  0  0  0  0  0
    2.1219   -0.2866    0.6131 H   0  0  0  0  0  0  0  0  0  0  0  0
    1.6803   -0.3858   -1.1051 H   0  0  0  0  0  0  0  0  0  0  0  0
    2.0035    2.0723   -1.1554 H   0  0  0  0  0  0  0  0  0  0  0  0
   -0.7527    2.3170   -0.0982 H   0  0  0  0  0  0  0  0  0  0  0  0
   -0.3723    1.4618   -1.6122 H   0  0  0  0  0  0  0  0  0  0  0  0
    2.8130    2.1842    1.2234 H   0  0  0  0  0  0  0  0  0  0  0  0
    1.7656    3.5132    0.7044 H   0  0  0  0  0  0  0  0  0  0  0  0
  1  2  2  0
  2  3  1  0
  3  4  1  0
  4  5  1  0
  5  6  1  0
  6  7  1  0
  6  8  1  0
  8  9  1  0
  9  2  1  0
  7  4  1  0
  3 10  1  0
  3 11  1  0
  4 12  1  0
  5 13  1  0
  5 14  1  0
  6 15  1  0
  7 16  1  0
  7 17  1  0
  8 18  1  0
  8 19  1  0
M  END
$$$$
