gdb 1509	3.5077838	1.0582553	1.0057621	3.2247	78.45	-0.23561	-0.03278	0.20283	1265.4562	0.153872	-422.578762	-422.569325	-422.568381	-422.613328	34.341
 OpenBabel02181911403D

 19 19  0  0  1  0  0  0  0  0999 V2000
   -0.0552    0.0773    0.0121 C   0  0  0  0  0  0  0  0  0  0  0  0
    1.4721   -0.0570   -0.0314 C   0  0  0  0  0  0  0  0  0  0  0  0
    2.0253   -0.4961    1.3315 C   0  0  0  0  0  0  0  0  0  0  0  0
    2.0361    1.2373   -0.3618 O   0  0  0  0  0  0  0  0  0  0  0  0
    2.8217    1.1728   -1.5389 C   0  0  2  0  0  0  0  0  0  0  0  0
    2.2537    2.1185   -2.6003 C   0  0  0  0  0  0  0  0  0  0  0  0
    2.8940    2.5686   -3.5119 O   0  0  0  0  0  0  0  0  0  0  0  0
    2.7227   -0.2616   -1.9995 C   0  0  0  0  0  0  0  0  0  0  0  0
    1.9528   -0.9405   -1.1587 C   0  0  0  0  0  0  0  0  0  0  0  0
   -0.3440    0.8146    0.7669 H   0  0  0  0  0  0  0  0  0  0  0  0
   -0.4402    0.4034   -0.9575 H   0  0  0  0  0  0  0  0  0  0  0  0
   -0.5240   -0.8784    0.2682 H   0  0  0  0  0  0  0  0  0  0  0  0
    1.6240   -1.4730    1.6203 H   0  0  0  0  0  0  0  0  0  0  0  0
    3.1156   -0.5649    1.2984 H   0  0  0  0  0  0  0  0  0  0  0  0
    1.7458    0.2308    2.0999 H   0  0  0  0  0  0  0  0  0  0  0  0
    3.8602    1.4777   -1.3402 H   0  0  0  0  0  0  0  0  0  0  0  0
    1.1702    2.3326   -2.4566 H   0  0  0  0  0  0  0  0  0  0  0  0
    3.2153   -0.6220   -2.8927 H   0  0  0  0  0  0  0  0  0  0  0  0
    1.6972   -1.9910   -1.2213 H   0  0  0  0  0  0  0  0  0  0  0  0
  1 12  1  0  0  0  0
  1 10  1  0  0  0  0
  2  1  1  0  0  0  0
  2  3  1  0  0  0  0
  3 13  1  0  0  0  0
  3 15  1  0  0  0  0
  4  2  1  0  0  0  0
  5 16  1  1  0  0  0
  5  4  1  0  0  0  0
  6 17  1  0  0  0  0
  6  5  1  0  0  0  0
  7  6  2  0  0  0  0
  8  5  1  0  0  0  0
  8  9  2  0  0  0  0
  9  2  1  0  0  0  0
 11  1  1  0  0  0  0
 14  3  1  0  0  0  0
 18  8  1  0  0  0  0
 19  9  1  0  0  0  0
M TOR 0 0 1 2 12
M TOR 1 0 1 2 13
M TOR 2 0 1 2 14
M TOR 3 0 1 3 4
M TOR 4 0 1 8 7
M TOR 5 0 1 8 18
M TOR 6 1 3 4 5
M TOR 7 1 3 4 7
M TOR 8 1 3 4 15
M TOR 9 1 8 7 4
M TOR 10 1 8 7 17
M TOR 11 2 1 0 9
M TOR 12 2 1 0 10
M TOR 13 2 1 0 11
M TOR 14 2 1 3 4
M TOR 15 2 1 8 7
M TOR 16 2 1 8 18
M TOR 17 3 1 0 9
M TOR 18 3 1 0 10
M TOR 19 3 1 0 11
M TOR 20 3 1 2 12
M TOR 21 3 1 2 13
M TOR 22 3 1 2 14
M TOR 23 3 1 8 7
M TOR 24 3 1 8 18
M TOR 25 3 4 5 6
M TOR 26 3 4 5 16
M TOR 27 3 4 7 8
M TOR 28 3 4 7 17
M TOR 29 4 3 1 8
M TOR 30 4 7 8 18
M TOR 31 5 4 7 8
M TOR 32 5 4 7 17
M TOR 33 6 5 4 7
M TOR 34 6 5 4 15
M TOR 35 7 4 5 16
M TOR 36 8 1 0 9
M TOR 37 8 1 0 10
M TOR 38 8 1 0 11
M TOR 39 8 1 2 12
M TOR 40 8 1 2 13
M TOR 41 8 1 2 14
M TOR 42 8 7 4 15
M  END
$$$$
