gdb 2851	2.793495	1.6346218	1.2384775	2.3021	74.25	-0.24077	0.06919	0.30996	1036.3604	0.156168	-422.515504	-422.507033	-422.506089	-422.547835	33.271
 OpenBabel02181911413D

 19 21  0  0  1  0  0  0  0  0999 V2000
   -0.5817   -1.3096    2.5107 C   0  0  0  0  0  0  0  0  0  0  0  0
   -1.2834   -0.0739    2.0268 C   0  0  2  0  0  0  0  0  0  0  0  0
   -2.5074    0.0281    0.9948 C   0  0  1  0  0  0  0  0  0  0  0  0
   -2.9049    1.2659    1.7749 C   0  0  2  0  0  0  0  0  0  0  0  0
   -1.9177    1.3720    0.6143 C   0  0  1  0  0  0  0  0  0  0  0  0
   -0.5423    0.9793    1.1464 C   0  0  2  0  0  0  0  0  0  0  0  0
    0.3172    0.4364    0.1678 O   0  0  0  0  0  0  0  0  0  0  0  0
   -2.1209    0.8096    3.0022 C   0  0  1  0  0  0  0  0  0  0  0  0
   -2.8922    0.0916    3.9406 O   0  0  0  0  0  0  0  0  0  0  0  0
    0.2154   -1.0419    3.2142 H   0  0  0  0  0  0  0  0  0  0  0  0
   -1.2711   -1.9792    3.0340 H   0  0  0  0  0  0  0  0  0  0  0  0
   -0.1196   -1.8547    1.6820 H   0  0  0  0  0  0  0  0  0  0  0  0
   -3.0931   -0.6843    0.4315 H   0  0  0  0  0  0  0  0  0  0  0  0
   -3.8515    1.7928    1.7551 H   0  0  0  0  0  0  0  0  0  0  0  0
   -2.1400    1.9768   -0.2568 H   0  0  0  0  0  0  0  0  0  0  0  0
    0.0551    1.7295    1.6769 H   0  0  0  0  0  0  0  0  0  0  0  0
   -0.2140   -0.1364   -0.3988 H   0  0  0  0  0  0  0  0  0  0  0  0
   -1.5689    1.5550    3.5860 H   0  0  0  0  0  0  0  0  0  0  0  0
   -3.4845   -0.4879    3.4461 H   0  0  0  0  0  0  0  0  0  0  0  0
  1 11  1  0  0  0  0
  1 10  1  0  0  0  0
  2  1  1  1  0  0  0
  2  8  1  0  0  0  0
  3 13  1  6  0  0  0
  3  4  1  0  0  0  0
  3  2  1  0  0  0  0
  4 14  1  1  0  0  0
  4  8  1  0  0  0  0
  5 15  1  6  0  0  0
  5  3  1  0  0  0  0
  5  6  1  0  0  0  0
  5  4  1  0  0  0  0
  6 16  1  1  0  0  0
  6  2  1  0  0  0  0
  7  6  1  0  0  0  0
  8 18  1  1  0  0  0
  8  9  1  0  0  0  0
 12  1  1  0  0  0  0
 17  7  1  0  0  0  0
 19  9  1  0  0  0  0
M TOR 0 0 1 2 3
M TOR 1 0 1 2 4
M TOR 2 0 1 2 12
M TOR 3 0 1 5 4
M TOR 4 0 1 5 6
M TOR 5 0 1 5 15
M TOR 6 0 1 7 3
M TOR 7 0 1 7 8
M TOR 8 0 1 7 17
M TOR 9 1 2 3 4
M TOR 10 1 2 3 7
M TOR 11 1 2 3 13
M TOR 12 1 2 4 5
M TOR 13 1 2 4 14
M TOR 14 1 5 4 3
M TOR 15 1 5 4 14
M TOR 16 1 5 6 16
M TOR 17 1 7 3 4
M TOR 18 1 7 3 13
M TOR 19 1 7 8 18
M TOR 20 2 1 0 9
M TOR 21 2 1 0 10
M TOR 22 2 1 0 11
M TOR 23 2 1 5 6
M TOR 24 2 1 5 15
M TOR 25 2 1 7 8
M TOR 26 2 1 7 17
M TOR 27 2 3 4 5
M TOR 28 2 3 4 14
M TOR 29 2 3 7 8
M TOR 30 2 3 7 17
M TOR 31 2 4 3 7
M TOR 32 2 4 3 13
M TOR 33 2 4 5 6
M TOR 34 2 4 5 15
M TOR 35 3 2 1 5
M TOR 36 3 4 2 12
M TOR 37 3 4 5 6
M TOR 38 3 4 5 15
M TOR 39 3 7 1 5
M TOR 40 3 7 8 18
M TOR 41 4 2 1 7
M TOR 42 4 3 7 8
M TOR 43 4 3 7 17
M TOR 44 4 5 1 7
M TOR 45 4 5 6 16
M TOR 46 5 1 0 9
M TOR 47 5 1 0 10
M TOR 48 5 1 0 11
M TOR 49 5 1 2 12
M TOR 50 5 1 7 8
M TOR 51 5 1 7 17
M TOR 52 5 4 2 12
M TOR 53 5 4 3 7
M TOR 54 5 4 3 13
M TOR 55 6 5 1 7
M TOR 56 6 5 4 14
M TOR 57 7 1 0 9
M TOR 58 7 1 0 10
M TOR 59 7 1 0 11
M TOR 60 7 1 2 12
M TOR 61 7 1 5 15
M TOR 62 7 3 2 12
M TOR 63 7 3 4 14
M TOR 64 8 7 3 13
M  END
$$$$
