
     RDKit          3D

 19 20  0  0  0  0  0  0  0  0999 V2000
    0.0836    0.0250   -0.3502 C   0  0  0  0  0  0  0  0  0  0  0  0
    1.0875    0.4531    0.6892 C   0  0  0  0  0  0  0  0  0  0  0  0
    2.3365    0.9756    0.2211 O   0  0  0  0  0  0  0  0  0  0  0  0
    2.3450   -0.2516    0.9708 C   0  0  0  0  0  0  0  0  0  0  0  0
    2.8788   -1.4687    0.3039 C   0  0  0  0  0  0  0  0  0  0  0  0
    3.9333   -1.9473    0.9677 C   0  0  0  0  0  0  0  0  0  0  0  0
    4.2656   -1.1237    2.1901 C   0  0  0  0  0  0  0  0  0  0  0  0
    2.9966   -0.2508    2.3652 C   0  0  0  0  0  0  0  0  0  0  0  0
    3.2042    1.0702    2.8096 O   0  0  0  0  0  0  0  0  0  0  0  0
   -0.6969   -0.5970    0.1017 H   0  0  0  0  0  0  0  0  0  0  0  0
   -0.4017    0.9014   -0.7925 H   0  0  0  0  0  0  0  0  0  0  0  0
    0.5587   -0.5394   -1.1560 H   0  0  0  0  0  0  0  0  0  0  0  0
    0.6730    1.0280    1.5211 H   0  0  0  0  0  0  0  0  0  0  0  0
    2.4796   -1.8614   -0.6224 H   0  0  0  0  0  0  0  0  0  0  0  0
    4.5143   -2.8136    0.6711 H   0  0  0  0  0  0  0  0  0  0  0  0
    4.4846   -1.7340    3.0735 H   0  0  0  0  0  0  0  0  0  0  0  0
    5.1393   -0.4832    2.0113 H   0  0  0  0  0  0  0  0  0  0  0  0
    2.3067   -0.7849    3.0386 H   0  0  0  0  0  0  0  0  0  0  0  0
    3.4570    1.0346    3.7370 H   0  0  0  0  0  0  0  0  0  0  0  0
  1  2  1  0
  2  3  1  0
  3  4  1  0
  4  5  1  0
  5  6  2  0
  6  7  1  0
  7  8  1  0
  8  9  1  0
  4  2  1  0
  8  4  1  0
  1 10  1  0
  1 11  1  0
  1 12  1  0
  2 13  1  0
  5 14  1  0
  6 15  1  0
  7 16  1  0
  7 17  1  0
  8 18  1  0
  9 19  1  0
M  END
$$$$
