
     RDKit          3D

 19 21  0  0  0  0  0  0  0  0999 V2000
   -0.1304    0.1760   -0.1280 C   0  0  0  0  0  0  0  0  0  0  0  0
    1.3569   -0.0496    0.0296 C   0  0  0  0  0  0  0  0  0  0  0  0
    2.2644    1.2068    0.1152 C   0  0  0  0  0  0  0  0  0  0  0  0
    2.7068    0.8516    1.4443 O   0  0  0  0  0  0  0  0  0  0  0  0
    1.9623   -0.3847    1.4215 C   0  0  0  0  0  0  0  0  0  0  0  0
    2.8404   -1.5915    1.1791 C   0  0  0  0  0  0  0  0  0  0  0  0
    2.1396   -2.8612    0.7319 C   0  0  0  0  0  0  0  0  0  0  0  0
    2.7119   -1.9060   -0.2820 C   0  0  0  0  0  0  0  0  0  0  0  0
    1.7951   -1.0344   -0.9051 O   0  0  0  0  0  0  0  0  0  0  0  0
   -0.4864    0.9287    0.5815 H   0  0  0  0  0  0  0  0  0  0  0  0
   -0.3554    0.5239   -1.1413 H   0  0  0  0  0  0  0  0  0  0  0  0
   -0.6815   -0.7541    0.0397 H   0  0  0  0  0  0  0  0  0  0  0  0
    3.0817    1.2133   -0.6148 H   0  0  0  0  0  0  0  0  0  0  0  0
    1.7503    2.1751    0.1046 H   0  0  0  0  0  0  0  0  0  0  0  0
    1.2939   -0.4693    2.2861 H   0  0  0  0  0  0  0  0  0  0  0  0
    3.7824   -1.6490    1.7115 H   0  0  0  0  0  0  0  0  0  0  0  0
    2.6545   -3.7995    0.9086 H   0  0  0  0  0  0  0  0  0  0  0  0
    1.0579   -2.9157    0.8080 H   0  0  0  0  0  0  0  0  0  0  0  0
    3.5433   -2.1839   -0.9194 H   0  0  0  0  0  0  0  0  0  0  0  0
  1  2  1  0
  2  3  1  0
  3  4  1  0
  4  5  1  0
  5  6  1  0
  6  7  1  0
  7  8  1  0
  8  9  1  0
  5  2  1  0
  8  6  1  0
  9  2  1  0
  1 10  1  0
  1 11  1  0
  1 12  1  0
  3 13  1  0
  3 14  1  0
  5 15  1  0
  6 16  1  0
  7 17  1  0
  7 18  1  0
  8 19  1  0
M  END
$$$$
