gdb 2862	3.1650681	1.543976	1.3102633	2.2465	74.34	-0.21297	0.06548	0.27845	1014.6545	0.158128	-422.517748	-422.510193	-422.509249	-422.549037	31.273
 OpenBabel02181911413D

 19 21  0  0  1  0  0  0  0  0999 V2000
    0.3628    0.3094    0.2358 O   0  0  0  0  0  0  0  0  0  0  0  0
   -0.9699   -0.0007    0.5682 C   0  0  1  0  0  0  0  0  0  0  0  0
   -2.0296    0.8669   -0.1074 C   0  0  2  0  0  0  0  0  0  0  0  0
   -3.5240    0.6753    0.2154 C   0  0  1  0  0  0  0  0  0  0  0  0
   -3.9951   -0.0768   -1.0803 C   0  0  0  0  0  0  0  0  0  0  0  0
   -3.0754   -1.2043   -0.4891 C   0  0  2  0  0  0  0  0  0  0  0  0
   -3.5904   -0.7228    0.8946 C   0  0  0  0  0  0  0  0  0  0  0  0
   -1.7038   -0.5319   -0.6324 C   0  0  2  0  0  0  0  0  0  0  0  0
   -1.0078   -0.8231   -1.7944 O   0  0  0  0  0  0  0  0  0  0  0  0
    0.5681    1.1866    0.5749 H   0  0  0  0  0  0  0  0  0  0  0  0
   -1.0847   -0.3914    1.5770 H   0  0  0  0  0  0  0  0  0  0  0  0
   -1.6951    1.7596   -0.6259 H   0  0  0  0  0  0  0  0  0  0  0  0
   -4.0666    1.5301    0.6211 H   0  0  0  0  0  0  0  0  0  0  0  0
   -5.0571   -0.3370   -1.0661 H   0  0  0  0  0  0  0  0  0  0  0  0
   -3.7103    0.3457   -2.0468 H   0  0  0  0  0  0  0  0  0  0  0  0
   -3.1387   -2.2444   -0.8070 H   0  0  0  0  0  0  0  0  0  0  0  0
   -4.6231   -1.0353    1.0621 H   0  0  0  0  0  0  0  0  0  0  0  0
   -3.0076   -0.9217    1.7950 H   0  0  0  0  0  0  0  0  0  0  0  0
   -0.1071   -0.5023   -1.6493 H   0  0  0  0  0  0  0  0  0  0  0  0
  1  2  1  0  0  0  0
  1 10  1  0  0  0  0
  2 11  1  1  0  0  0
  3 12  1  6  0  0  0
  3  4  1  0  0  0  0
  3  2  1  0  0  0  0
  4 13  1  1  0  0  0
  4  7  1  0  0  0  0
  5 14  1  0  0  0  0
  5  6  1  0  0  0  0
  5  4  1  0  0  0  0
  6 16  1  6  0  0  0
  6  7  1  0  0  0  0
  7 17  1  0  0  0  0
  7 18  1  0  0  0  0
  8  9  1  6  0  0  0
  8  6  1  0  0  0  0
  8  3  1  0  0  0  0
  8  2  1  0  0  0  0
  9 19  1  0  0  0  0
 15  5  1  0  0  0  0
M TOR 0 0 1 2 3
M TOR 1 0 1 2 7
M TOR 2 0 1 2 11
M TOR 3 0 1 7 5
M TOR 4 0 1 7 8
M TOR 5 1 2 3 4
M TOR 6 1 2 3 6
M TOR 7 1 2 3 12
M TOR 8 1 2 7 5
M TOR 9 1 2 7 8
M TOR 10 1 7 2 3
M TOR 11 1 7 2 11
M TOR 12 1 7 5 4
M TOR 13 1 7 5 6
M TOR 14 1 7 5 15
M TOR 15 1 7 8 18
M TOR 16 2 1 0 9
M TOR 17 2 3 4 5
M TOR 18 2 3 4 13
M TOR 19 2 3 4 14
M TOR 20 2 3 6 5
M TOR 21 2 3 6 16
M TOR 22 2 3 6 17
M TOR 23 2 7 1 10
M TOR 24 2 7 5 4
M TOR 25 2 7 5 6
M TOR 26 2 7 5 15
M TOR 27 2 7 8 18
M TOR 28 3 2 1 10
M TOR 29 3 2 7 5
M TOR 30 3 2 7 8
M TOR 31 3 4 5 6
M TOR 32 3 4 5 7
M TOR 33 3 4 5 15
M TOR 34 3 6 5 7
M TOR 35 3 6 5 15
M TOR 36 4 3 2 7
M TOR 37 4 3 2 11
M TOR 38 4 3 6 16
M TOR 39 4 3 6 17
M TOR 40 4 5 6 16
M TOR 41 4 5 6 17
M TOR 42 4 5 7 8
M TOR 43 5 4 3 12
M TOR 44 5 6 3 12
M TOR 45 5 7 1 10
M TOR 46 5 7 2 11
M TOR 47 5 7 8 18
M TOR 48 6 3 2 7
M TOR 49 6 3 2 11
M TOR 50 6 3 4 13
M TOR 51 6 3 4 14
M TOR 52 6 5 4 13
M TOR 53 6 5 4 14
M TOR 54 6 5 7 8
M TOR 55 7 1 0 9
M TOR 56 7 2 3 12
M TOR 57 7 5 4 13
M TOR 58 7 5 4 14
M TOR 59 7 5 6 16
M TOR 60 7 5 6 17
M TOR 61 8 7 1 10
M TOR 62 8 7 2 11
M TOR 63 8 7 5 15
M  END
$$$$
