
     RDKit          3D

 19 19  0  0  0  0  0  0  0  0999 V2000
    1.6344   -0.1915    0.0974 C   0  0  0  0  0  0  0  0  0  0  0  0
    0.1805   -0.1132    0.0912 C   0  0  0  0  0  0  0  0  0  0  0  0
   -1.0215   -0.0386    0.0998 C   0  0  0  0  0  0  0  0  0  0  0  0
   -2.4801    0.0076    0.0817 C   0  0  0  0  0  0  0  0  0  0  0  0
   -3.1047   -1.3807    0.3879 C   0  0  0  0  0  0  0  0  0  0  0  0
   -4.4798   -1.2869    0.6772 O   0  0  0  0  0  0  0  0  0  0  0  0
   -2.9673    0.5200   -1.2704 C   0  0  0  0  0  0  0  0  0  0  0  0
   -3.5949    1.8339   -1.4370 C   0  0  0  0  0  0  0  0  0  0  0  0
   -4.3913    0.6415   -1.4277 O   0  0  0  0  0  0  0  0  0  0  0  0
    2.0478    0.1851    1.0394 H   0  0  0  0  0  0  0  0  0  0  0  0
    1.9778   -1.2244   -0.0259 H   0  0  0  0  0  0  0  0  0  0  0  0
    2.0682    0.4013   -0.7154 H   0  0  0  0  0  0  0  0  0  0  0  0
   -2.8442    0.6853    0.8650 H   0  0  0  0  0  0  0  0  0  0  0  0
   -2.8991   -2.0585   -0.4572 H   0  0  0  0  0  0  0  0  0  0  0  0
   -2.6179   -1.8032    1.2716 H   0  0  0  0  0  0  0  0  0  0  0  0
   -4.8849   -0.7562   -0.0207 H   0  0  0  0  0  0  0  0  0  0  0  0
   -2.4709    0.0704   -2.1303 H   0  0  0  0  0  0  0  0  0  0  0  0
   -3.7153    2.4807   -0.5697 H   0  0  0  0  0  0  0  0  0  0  0  0
   -3.5478    2.3430   -2.3975 H   0  0  0  0  0  0  0  0  0  0  0  0
  1  2  1  0
  2  3  3  0
  3  4  1  0
  4  5  1  0
  5  6  1  0
  4  7  1  0
  7  8  1  0
  8  9  1  0
  9  7  1  0
  1 10  1  0
  1 11  1  0
  1 12  1  0
  4 13  1  0
  5 14  1  0
  5 15  1  0
  6 16  1  0
  7 17  1  0
  8 18  1  0
  8 19  1  0
M  END
$$$$
