
     RDKit          3D

 19 21  0  0  0  0  0  0  0  0999 V2000
   -0.9418   -1.4155   -0.8866 C   0  0  0  0  0  0  0  0  0  0  0  0
    0.5873   -1.2906   -0.9702 C   0  0  0  0  0  0  0  0  0  0  0  0
    0.8667   -0.7294    0.3177 O   0  0  0  0  0  0  0  0  0  0  0  0
    0.0549    0.4703    0.2754 C   0  0  0  0  0  0  0  0  0  0  0  0
    0.9818    1.5701   -0.2585 C   0  0  0  0  0  0  0  0  0  0  0  0
    1.7230    0.9433   -1.4728 C   0  0  0  0  0  0  0  0  0  0  0  0
    0.7803   -0.1345   -2.0238 C   0  0  0  0  0  0  0  0  0  0  0  0
   -0.5280    0.4869   -2.0706 O   0  0  0  0  0  0  0  0  0  0  0  0
   -1.0505    0.1141   -0.7901 C   0  0  0  0  0  0  0  0  0  0  0  0
   -1.4465   -1.7855   -1.7803 H   0  0  0  0  0  0  0  0  0  0  0  0
   -1.2381   -1.9784   -0.0003 H   0  0  0  0  0  0  0  0  0  0  0  0
    1.1954   -2.1818   -1.1203 H   0  0  0  0  0  0  0  0  0  0  0  0
   -0.3452    0.6658    1.2725 H   0  0  0  0  0  0  0  0  0  0  0  0
    0.4041    2.4484   -0.5595 H   0  0  0  0  0  0  0  0  0  0  0  0
    1.6854    1.8794    0.5188 H   0  0  0  0  0  0  0  0  0  0  0  0
    1.9282    1.6926   -2.2418 H   0  0  0  0  0  0  0  0  0  0  0  0
    2.6763    0.5024   -1.1683 H   0  0  0  0  0  0  0  0  0  0  0  0
    1.0419   -0.4914   -3.0222 H   0  0  0  0  0  0  0  0  0  0  0  0
   -2.0246    0.5789   -0.6432 H   0  0  0  0  0  0  0  0  0  0  0  0
  1  2  1  0
  2  3  1  0
  3  4  1  0
  4  5  1  0
  5  6  1  0
  6  7  1  0
  7  8  1  0
  8  9  1  0
  9  1  1  0
  7  2  1  0
  9  4  1  0
  1 10  1  0
  1 11  1  0
  2 12  1  0
  4 13  1  0
  5 14  1  0
  5 15  1  0
  6 16  1  0
  6 17  1  0
  7 18  1  0
  9 19  1  0
M  END
$$$$
