gdb 680	2.6310194	1.6028729	1.2402703	2.8779	75.41	-0.24026	-0.01651	0.22375	1058.1578	0.158401	-422.572741	-422.565041	-422.564097	-422.604989	29.958
 OpenBabel02181911403D

 19 20  0  0  1  0  0  0  0  0999 V2000
    1.1345    0.1507    0.4834 O   0  0  0  0  0  0  0  0  0  0  0  0
   -0.0074   -0.0012    0.1632 C   0  0  0  0  0  0  0  0  0  0  0  0
   -0.9225   -1.2235   -0.0457 C   0  0  0  0  0  0  0  0  0  0  0  0
   -2.1162   -0.2606    0.1820 C   0  0  1  0  0  0  0  0  0  0  0  0
   -2.4899   -0.3601    1.5420 O   0  0  0  0  0  0  0  0  0  0  0  0
   -2.9781    0.8551    2.0976 C   0  0  0  0  0  0  0  0  0  0  0  0
   -1.8687    1.9033    2.1581 C   0  0  0  0  0  0  0  0  0  0  0  0
   -1.3729    2.2347    0.7427 C   0  0  0  0  0  0  0  0  0  0  0  0
   -1.1829    0.9658   -0.0852 C   0  0  1  0  0  0  0  0  0  0  0  0
   -0.8609   -1.5975   -1.0727 H   0  0  0  0  0  0  0  0  0  0  0  0
   -0.8293   -2.0518    0.6583 H   0  0  0  0  0  0  0  0  0  0  0  0
   -2.9894   -0.3664   -0.4737 H   0  0  0  0  0  0  0  0  0  0  0  0
   -3.8358    1.2304    1.5134 H   0  0  0  0  0  0  0  0  0  0  0  0
   -3.3408    0.5990    3.0968 H   0  0  0  0  0  0  0  0  0  0  0  0
   -2.2324    2.8086    2.6562 H   0  0  0  0  0  0  0  0  0  0  0  0
   -1.0498    1.5002    2.7647 H   0  0  0  0  0  0  0  0  0  0  0  0
   -2.1081    2.8798    0.2454 H   0  0  0  0  0  0  0  0  0  0  0  0
   -0.4313    2.7931    0.7753 H   0  0  0  0  0  0  0  0  0  0  0  0
   -1.1823    1.1929   -1.1594 H   0  0  0  0  0  0  0  0  0  0  0  0
  2  1  2  0  0  0  0
  3  2  1  0  0  0  0
  3  4  1  0  0  0  0
  3 11  1  0  0  0  0
  4 12  1  6  0  0  0
  4  5  1  0  0  0  0
  5  6  1  0  0  0  0
  6  7  1  0  0  0  0
  6 14  1  0  0  0  0
  7 15  1  0  0  0  0
  7 16  1  0  0  0  0
  8 18  1  0  0  0  0
  8  7  1  0  0  0  0
  9 19  1  6  0  0  0
  9  2  1  0  0  0  0
  9  4  1  0  0  0  0
  9  8  1  0  0  0  0
 10  3  1  0  0  0  0
 13  6  1  0  0  0  0
 17  8  1  0  0  0  0
M TOR 0 0 1 2 3
M TOR 1 0 1 2 9
M TOR 2 0 1 2 10
M TOR 3 0 1 8 3
M TOR 4 0 1 8 7
M TOR 5 0 1 8 18
M TOR 6 1 2 3 4
M TOR 7 1 2 3 8
M TOR 8 1 2 3 11
M TOR 9 1 8 3 4
M TOR 10 1 8 3 11
M TOR 11 1 8 7 6
M TOR 12 1 8 7 16
M TOR 13 1 8 7 17
M TOR 14 2 1 8 7
M TOR 15 2 1 8 18
M TOR 16 2 3 4 5
M TOR 17 2 3 8 7
M TOR 18 2 3 8 18
M TOR 19 3 4 5 6
M TOR 20 3 4 5 12
M TOR 21 3 4 5 13
M TOR 22 3 8 7 6
M TOR 23 3 8 7 16
M TOR 24 3 8 7 17
M TOR 25 4 3 2 9
M TOR 26 4 3 2 10
M TOR 27 4 3 8 7
M TOR 28 4 3 8 18
M TOR 29 4 5 6 7
M TOR 30 4 5 6 14
M TOR 31 4 5 6 15
M TOR 32 5 4 3 8
M TOR 33 5 4 3 11
M TOR 34 5 6 7 8
M TOR 35 5 6 7 16
M TOR 36 5 6 7 17
M TOR 37 6 7 8 18
M TOR 38 7 6 5 12
M TOR 39 7 6 5 13
M TOR 40 7 8 3 11
M TOR 41 8 1 2 9
M TOR 42 8 1 2 10
M TOR 43 8 3 2 9
M TOR 44 8 3 2 10
M TOR 45 8 7 6 14
M TOR 46 8 7 6 15
M  END
$$$$
