gdb 4136	2.5302205	1.6727685	1.2445115	2.4668	75.52	-0.24709	-0.03477	0.21232	1047.4668	0.156966	-422.552154	-422.544013	-422.543069	-422.584734	31.244
 OpenBabel02181911413D

 19 20  0  0  1  0  0  0  0  0999 V2000
    0.0105    0.0327    0.0581 C   0  0  0  0  0  0  0  0  0  0  0  0
    1.5245    0.1401    0.0861 C   0  0  2  0  0  0  0  0  0  0  0  0
    2.1235   -0.5009   -1.0768 O   0  0  0  0  0  0  0  0  0  0  0  0
    3.0662   -1.3992   -0.4832 C   0  0  2  0  0  0  0  0  0  0  0  0
    2.2629   -2.0836    0.6496 C   0  0  0  0  0  0  0  0  0  0  0  0
    2.2791   -0.6118    1.2019 C   0  0  1  0  0  0  0  0  0  0  0  0
    3.7421   -0.5501    0.6199 C   0  0  0  0  0  0  0  0  0  0  0  0
    2.0179   -0.2918    2.6342 C   0  0  0  0  0  0  0  0  0  0  0  0
    1.2480    0.5513    3.0265 O   0  0  0  0  0  0  0  0  0  0  0  0
   -0.4119    0.5827    0.9029 H   0  0  0  0  0  0  0  0  0  0  0  0
   -0.3707    0.4651   -0.8715 H   0  0  0  0  0  0  0  0  0  0  0  0
   -0.3284   -1.0058    0.1086 H   0  0  0  0  0  0  0  0  0  0  0  0
    1.8095    1.1996    0.0869 H   0  0  0  0  0  0  0  0  0  0  0  0
    3.6076   -1.9363   -1.2601 H   0  0  0  0  0  0  0  0  0  0  0  0
    1.2996   -2.5267    0.3941 H   0  0  0  0  0  0  0  0  0  0  0  0
    2.8587   -2.7637    1.2607 H   0  0  0  0  0  0  0  0  0  0  0  0
    4.1276    0.4322    0.3381 H   0  0  0  0  0  0  0  0  0  0  0  0
    4.4632   -1.1020    1.2252 H   0  0  0  0  0  0  0  0  0  0  0  0
    2.6154   -0.8981    3.3541 H   0  0  0  0  0  0  0  0  0  0  0  0
  1  2  1  0  0  0  0
  1 12  1  0  0  0  0
  1 10  1  0  0  0  0
  2 13  1  1  0  0  0
  2  6  1  0  0  0  0
  3  4  1  0  0  0  0
  3  2  1  0  0  0  0
  4 14  1  6  0  0  0
  4  7  1  0  0  0  0
  4  5  1  0  0  0  0
  5  6  1  0  0  0  0
  5 16  1  0  0  0  0
  6  8  1  1  0  0  0
  7  6  1  0  0  0  0
  7 18  1  0  0  0  0
  8  9  2  0  0  0  0
  8 19  1  0  0  0  0
 11  1  1  0  0  0  0
 15  5  1  0  0  0  0
 17  7  1  0  0  0  0
M TOR 0 0 1 2 3
M TOR 1 0 1 5 4
M TOR 2 0 1 5 6
M TOR 3 0 1 5 7
M TOR 4 1 2 3 4
M TOR 5 1 2 3 6
M TOR 6 1 2 3 13
M TOR 7 1 5 4 3
M TOR 8 1 5 4 14
M TOR 9 1 5 4 15
M TOR 10 1 5 6 3
M TOR 11 1 5 6 16
M TOR 12 1 5 6 17
M TOR 13 1 5 7 8
M TOR 14 1 5 7 18
M TOR 15 2 1 0 9
M TOR 16 2 1 0 10
M TOR 17 2 1 0 11
M TOR 18 2 1 5 4
M TOR 19 2 1 5 6
M TOR 20 2 1 5 7
M TOR 21 2 3 4 5
M TOR 22 2 3 4 14
M TOR 23 2 3 4 15
M TOR 24 2 3 6 5
M TOR 25 2 3 6 16
M TOR 26 2 3 6 17
M TOR 27 3 2 1 5
M TOR 28 3 2 1 12
M TOR 29 3 4 5 6
M TOR 30 3 4 5 7
M TOR 31 3 6 5 7
M TOR 32 4 3 6 16
M TOR 33 4 3 6 17
M TOR 34 4 5 1 12
M TOR 35 4 5 6 16
M TOR 36 4 5 6 17
M TOR 37 4 5 7 8
M TOR 38 4 5 7 18
M TOR 39 5 1 0 9
M TOR 40 5 1 0 10
M TOR 41 5 1 0 11
M TOR 42 5 4 3 13
M TOR 43 5 6 3 13
M TOR 44 6 3 4 14
M TOR 45 6 3 4 15
M TOR 46 6 5 1 12
M TOR 47 6 5 4 14
M TOR 48 6 5 4 15
M TOR 49 6 5 7 8
M TOR 50 6 5 7 18
M TOR 51 7 5 1 12
M TOR 52 7 5 4 14
M TOR 53 7 5 4 15
M TOR 54 7 5 6 16
M TOR 55 7 5 6 17
M  END
$$$$
