gdb 1586	2.3393483	1.4258886	1.1032226	1.5891	79.61	-0.24652	-0.06657	0.17995	1169.6487	0.154496	-422.57832	-422.568908	-422.567964	-422.612501	34.089
 OpenBabel02181911403D

 19 19  0  0  0  0  0  0  0  0999 V2000
   -1.2370    0.6100    1.2844 C   0  0  0  0  0  0  0  0  0  0  0  0
   -1.0169   -0.2124    0.0072 C   0  0  0  0  0  0  0  0  0  0  0  0
   -1.2228    0.6475   -1.2474 C   0  0  0  0  0  0  0  0  0  0  0  0
   -1.9843   -1.2857   -0.0141 O   0  0  0  0  0  0  0  0  0  0  0  0
   -1.3449   -2.5537   -0.0292 C   0  0  0  0  0  0  0  0  0  0  0  0
    0.1198   -2.2604   -0.0167 C   0  0  0  0  0  0  0  0  0  0  0  0
    0.3190   -0.9396    0.0039 C   0  0  0  0  0  0  0  0  0  0  0  0
    1.6385   -0.2833    0.0210 C   0  0  0  0  0  0  0  0  0  0  0  0
    2.6957   -0.8733    0.0179 O   0  0  0  0  0  0  0  0  0  0  0  0
   -1.1111   -0.0175    2.1706 H   0  0  0  0  0  0  0  0  0  0  0  0
   -0.5300    1.4442    1.3457 H   0  0  0  0  0  0  0  0  0  0  0  0
   -2.2508    1.0206    1.2913 H   0  0  0  0  0  0  0  0  0  0  0  0
   -1.0868    0.0465   -2.1503 H   0  0  0  0  0  0  0  0  0  0  0  0
   -2.2365    1.0583   -1.2536 H   0  0  0  0  0  0  0  0  0  0  0  0
   -0.5153    1.4830   -1.2760 H   0  0  0  0  0  0  0  0  0  0  0  0
   -1.6534   -3.1509    0.8444 H   0  0  0  0  0  0  0  0  0  0  0  0
   -1.6435   -3.1248   -0.9234 H   0  0  0  0  0  0  0  0  0  0  0  0
    0.8988   -3.0124   -0.0234 H   0  0  0  0  0  0  0  0  0  0  0  0
    1.6139    0.8287    0.0372 H   0  0  0  0  0  0  0  0  0  0  0  0
  1 12  1  0  0  0  0
  1 11  1  0  0  0  0
  1 10  1  0  0  0  0
  2  1  1  0  0  0  0
  3  2  1  0  0  0  0
  4  2  1  0  0  0  0
  5  6  1  0  0  0  0
  5  4  1  0  0  0  0
  5 16  1  0  0  0  0
  6  7  2  0  0  0  0
  7  2  1  0  0  0  0
  7  8  1  0  0  0  0
  8 19  1  0  0  0  0
  9  8  2  0  0  0  0
 13  3  1  0  0  0  0
 14  3  1  0  0  0  0
 15  3  1  0  0  0  0
 17  5  1  0  0  0  0
 18  6  1  0  0  0  0
M TOR 0 0 1 2 12
M TOR 1 0 1 2 13
M TOR 2 0 1 2 14
M TOR 3 0 1 3 4
M TOR 4 0 1 6 5
M TOR 5 0 1 6 7
M TOR 6 1 3 4 5
M TOR 7 1 3 4 15
M TOR 8 1 3 4 16
M TOR 9 1 6 5 4
M TOR 10 1 6 5 17
M TOR 11 1 6 7 8
M TOR 12 1 6 7 18
M TOR 13 2 1 0 9
M TOR 14 2 1 0 10
M TOR 15 2 1 0 11
M TOR 16 2 1 3 4
M TOR 17 2 1 6 5
M TOR 18 2 1 6 7
M TOR 19 3 1 0 9
M TOR 20 3 1 0 10
M TOR 21 3 1 0 11
M TOR 22 3 1 2 12
M TOR 23 3 1 2 13
M TOR 24 3 1 2 14
M TOR 25 3 1 6 5
M TOR 26 3 1 6 7
M TOR 27 3 4 5 6
M TOR 28 3 4 5 17
M TOR 29 4 3 1 6
M TOR 30 4 5 6 7
M TOR 31 5 6 7 8
M TOR 32 5 6 7 18
M TOR 33 6 1 0 9
M TOR 34 6 1 0 10
M TOR 35 6 1 0 11
M TOR 36 6 1 2 12
M TOR 37 6 1 2 13
M TOR 38 6 1 2 14
M TOR 39 6 5 4 15
M TOR 40 6 5 4 16
M TOR 41 7 6 5 17
M  END
$$$$
