gdb 2560	2.652452	1.6284294	1.6139771	2.0707	75.65	-0.23318	0.01465	0.24783	978.9206	0.159176	-422.569173	-422.561626	-422.560681	-422.600834	29.697
 OpenBabel02181911413D

 19 20  0  0  1  0  0  0  0  0999 V2000
   -0.4620    1.0983   -2.3821 C   0  0  0  0  0  0  0  0  0  0  0  0
   -0.9340    0.3037   -1.2079 C   0  0  0  0  0  0  0  0  0  0  0  0
   -1.3131   -0.9762   -1.1750 C   0  0  0  0  0  0  0  0  0  0  0  0
   -1.7258   -1.4193    0.2075 C   0  0  1  0  0  0  0  0  0  0  0  0
   -0.5326   -1.1478    1.1496 C   0  0  0  0  0  0  0  0  0  0  0  0
   -0.1868    0.2395    1.0786 O   0  0  0  0  0  0  0  0  0  0  0  0
   -1.0350    0.9312    0.1728 C   0  0  2  0  0  0  0  0  0  0  0  0
   -2.3796    0.8774    0.6284 O   0  0  0  0  0  0  0  0  0  0  0  0
   -2.8538   -0.4726    0.6729 C   0  0  0  0  0  0  0  0  0  0  0  0
   -0.4488    0.4940   -3.2935 H   0  0  0  0  0  0  0  0  0  0  0  0
   -1.1081    1.9675   -2.5581 H   0  0  0  0  0  0  0  0  0  0  0  0
    0.5503    1.4879   -2.2160 H   0  0  0  0  0  0  0  0  0  0  0  0
   -1.3301   -1.6404   -2.0327 H   0  0  0  0  0  0  0  0  0  0  0  0
   -2.0410   -2.4631    0.2634 H   0  0  0  0  0  0  0  0  0  0  0  0
   -0.8023   -1.3837    2.1877 H   0  0  0  0  0  0  0  0  0  0  0  0
    0.3399   -1.7506    0.8682 H   0  0  0  0  0  0  0  0  0  0  0  0
   -0.7376    1.9798    0.2098 H   0  0  0  0  0  0  0  0  0  0  0  0
   -3.1450   -0.7023    1.7066 H   0  0  0  0  0  0  0  0  0  0  0  0
   -3.7386   -0.5641    0.0307 H   0  0  0  0  0  0  0  0  0  0  0  0
  1 12  1  0  0  0  0
  1  2  1  0  0  0  0
  2  3  2  0  0  0  0
  2  7  1  0  0  0  0
  3  4  1  0  0  0  0
  4 14  1  1  0  0  0
  4  9  1  0  0  0  0
  4  5  1  0  0  0  0
  5 15  1  0  0  0  0
  6  5  1  0  0  0  0
  7 17  1  6  0  0  0
  7  8  1  0  0  0  0
  7  6  1  0  0  0  0
  8  9  1  0  0  0  0
  9 18  1  0  0  0  0
 10  1  1  0  0  0  0
 11  1  1  0  0  0  0
 13  3  1  0  0  0  0
 16  5  1  0  0  0  0
 19  9  1  0  0  0  0
M TOR 0 0 1 2 3
M TOR 1 0 1 2 12
M TOR 2 0 1 6 5
M TOR 3 0 1 6 7
M TOR 4 0 1 6 16
M TOR 5 1 2 3 4
M TOR 6 1 2 3 8
M TOR 7 1 2 3 13
M TOR 8 1 6 5 4
M TOR 9 1 6 7 8
M TOR 10 2 1 0 9
M TOR 11 2 1 0 10
M TOR 12 2 1 0 11
M TOR 13 2 1 6 5
M TOR 14 2 1 6 7
M TOR 15 2 1 6 16
M TOR 16 2 3 4 5
M TOR 17 2 3 4 14
M TOR 18 2 3 4 15
M TOR 19 2 3 8 7
M TOR 20 2 3 8 17
M TOR 21 2 3 8 18
M TOR 22 3 2 1 6
M TOR 23 3 4 5 6
M TOR 24 3 8 7 6
M TOR 25 4 3 2 12
M TOR 26 4 3 8 7
M TOR 27 4 3 8 17
M TOR 28 4 3 8 18
M TOR 29 4 5 6 7
M TOR 30 4 5 6 16
M TOR 31 5 4 3 8
M TOR 32 5 4 3 13
M TOR 33 5 6 7 8
M TOR 34 6 1 0 9
M TOR 35 6 1 0 10
M TOR 36 6 1 0 11
M TOR 37 6 1 2 12
M TOR 38 6 5 4 14
M TOR 39 6 5 4 15
M TOR 40 6 7 8 17
M TOR 41 6 7 8 18
M TOR 42 7 8 3 13
M TOR 43 8 3 2 12
M TOR 44 8 3 4 14
M TOR 45 8 3 4 15
M TOR 46 8 7 6 16
M  END
$$$$
