
     RDKit          3D

 19 20  0  0  0  0  0  0  0  0999 V2000
    1.7754   -2.6493   -0.4959 C   0  0  0  0  0  0  0  0  0  0  0  0
    0.7842   -1.6789   -1.0870 C   0  0  0  0  0  0  0  0  0  0  0  0
    1.0639   -1.0104   -2.4571 C   0  0  0  0  0  0  0  0  0  0  0  0
   -0.4602   -1.2217   -2.6246 C   0  0  0  0  0  0  0  0  0  0  0  0
   -0.3879   -2.3295   -1.6759 O   0  0  0  0  0  0  0  0  0  0  0  0
   -1.1960   -0.0741   -1.9665 C   0  0  0  0  0  0  0  0  0  0  0  0
   -0.8549    0.1789   -0.7032 C   0  0  0  0  0  0  0  0  0  0  0  0
    0.2411   -0.6485   -0.0621 C   0  0  0  0  0  0  0  0  0  0  0  0
    1.2749    0.1718    0.4801 O   0  0  0  0  0  0  0  0  0  0  0  0
    1.3002   -3.2356    0.2985 H   0  0  0  0  0  0  0  0  0  0  0  0
    2.1466   -3.3391   -1.2584 H   0  0  0  0  0  0  0  0  0  0  0  0
    2.6165   -2.1042   -0.0589 H   0  0  0  0  0  0  0  0  0  0  0  0
    1.4520    0.0097   -2.4976 H   0  0  0  0  0  0  0  0  0  0  0  0
    1.6504   -1.6702   -3.0995 H   0  0  0  0  0  0  0  0  0  0  0  0
   -0.8644   -1.5278   -3.5911 H   0  0  0  0  0  0  0  0  0  0  0  0
   -1.9441    0.4939   -2.5096 H   0  0  0  0  0  0  0  0  0  0  0  0
   -1.3030    0.9682   -0.1066 H   0  0  0  0  0  0  0  0  0  0  0  0
   -0.1551   -1.2038    0.7976 H   0  0  0  0  0  0  0  0  0  0  0  0
    1.5245    0.8091   -0.1982 H   0  0  0  0  0  0  0  0  0  0  0  0
  1  2  1  0
  2  3  1  0
  3  4  1  0
  4  5  1  0
  4  6  1  0
  6  7  2  0
  7  8  1  0
  8  9  1  0
  5  2  1  0
  8  2  1  0
  1 10  1  0
  1 11  1  0
  1 12  1  0
  3 13  1  0
  3 14  1  0
  4 15  1  0
  6 16  1  0
  7 17  1  0
  8 18  1  0
  9 19  1  0
M  END
$$$$
