gdb 1387	4.1581872	0.6689407	0.599691	1.3762	78.61	-0.26485	0.03052	0.29536999999999997	1807.8916	0.153927	-422.496786	-422.486671	-422.485727	-422.53289	35.85
 OpenBabel02181911403D

 19 19  0  0  1  0  0  0  0  0999 V2000
   -1.4948   -1.9142    4.2424 O   0  0  0  0  0  0  0  0  0  0  0  0
   -0.3240   -2.4684    3.6421 C   0  0  1  0  0  0  0  0  0  0  0  0
    0.4030   -1.4468    2.7472 C   0  0  0  0  0  0  0  0  0  0  0  0
   -0.5042   -0.8906    1.6435 C   0  0  0  0  0  0  0  0  0  0  0  0
    0.1992    0.1393    0.7957 C   0  0  2  0  0  0  0  0  0  0  0  0
   -0.0163    0.2512   -0.6514 C   0  0  0  0  0  0  0  0  0  0  0  0
    1.1701   -0.3544   -0.1344 O   0  0  0  0  0  0  0  0  0  0  0  0
    0.5797   -3.0304    4.6493 C   0  0  0  0  0  0  0  0  0  0  0  0
    1.3262   -3.4445    5.4958 C   0  0  0  0  0  0  0  0  0  0  0  0
   -1.2061   -1.3532    4.9711 H   0  0  0  0  0  0  0  0  0  0  0  0
   -0.6998   -3.2815    3.0078 H   0  0  0  0  0  0  0  0  0  0  0  0
    0.7755   -0.6318    3.3820 H   0  0  0  0  0  0  0  0  0  0  0  0
    1.2817   -1.9255    2.3019 H   0  0  0  0  0  0  0  0  0  0  0  0
   -0.8448   -1.7089    0.9974 H   0  0  0  0  0  0  0  0  0  0  0  0
   -1.3967   -0.4454    2.0973 H   0  0  0  0  0  0  0  0  0  0  0  0
    0.5239    1.0377    1.3258 H   0  0  0  0  0  0  0  0  0  0  0  0
   -0.7124   -0.4285   -1.1420 H   0  0  0  0  0  0  0  0  0  0  0  0
    0.1253    1.2083   -1.1518 H   0  0  0  0  0  0  0  0  0  0  0  0
    1.9800   -3.8310    6.2384 H   0  0  0  0  0  0  0  0  0  0  0  0
  1 10  1  0  0  0  0
  2 11  1  6  0  0  0
  2  1  1  0  0  0  0
  2  8  1  0  0  0  0
  3 12  1  0  0  0  0
  3  2  1  0  0  0  0
  4 15  1  0  0  0  0
  4  3  1  0  0  0  0
  5 16  1  1  0  0  0
  5  4  1  0  0  0  0
  6  7  1  0  0  0  0
  6  5  1  0  0  0  0
  7  5  1  0  0  0  0
  8  9  3  0  0  0  0
  9 19  1  0  0  0  0
 13  3  1  0  0  0  0
 14  4  1  0  0  0  0
 17  6  1  0  0  0  0
 18  6  1  0  0  0  0
M TOR 0 0 1 2 3
M TOR 1 0 1 2 11
M TOR 2 0 1 2 12
M TOR 3 0 1 7 8
M TOR 4 1 2 3 4
M TOR 5 1 2 3 13
M TOR 6 1 2 3 14
M TOR 7 1 7 8 18
M TOR 8 2 1 0 9
M TOR 9 2 1 7 8
M TOR 10 2 3 4 5
M TOR 11 2 3 4 6
M TOR 12 2 3 4 15
M TOR 13 3 2 1 7
M TOR 14 3 2 1 10
M TOR 15 3 4 5 6
M TOR 16 3 4 5 16
M TOR 17 3 4 5 17
M TOR 18 4 3 2 11
M TOR 19 4 3 2 12
M TOR 20 4 6 5 16
M TOR 21 4 6 5 17
M TOR 22 5 4 3 13
M TOR 23 5 4 3 14
M TOR 24 5 6 4 15
M TOR 25 6 4 3 13
M TOR 26 6 4 3 14
M TOR 27 7 1 0 9
M TOR 28 7 1 2 11
M TOR 29 7 1 2 12
M TOR 30 8 7 1 10
M  END
$$$$
