
     RDKit          3D

 19 20  0  0  0  0  0  0  0  0999 V2000
    0.5851    0.1981    0.6959 O   0  0  0  0  0  0  0  0  0  0  0  0
   -0.7504    0.6306    0.8653 C   0  0  0  0  0  0  0  0  0  0  0  0
   -1.2983    0.4357    2.3103 C   0  0  0  0  0  0  0  0  0  0  0  0
   -2.8211    0.6562    2.3337 C   0  0  0  0  0  0  0  0  0  0  0  0
   -3.1761    1.9143    1.5691 C   0  0  0  0  0  0  0  0  0  0  0  0
   -2.2035    2.6339    1.0001 C   0  0  0  0  0  0  0  0  0  0  0  0
   -0.7766    2.1579    1.1513 C   0  0  0  0  0  0  0  0  0  0  0  0
   -0.5551    1.7692    2.6556 C   0  0  0  0  0  0  0  0  0  0  0  0
   -1.0154    2.5979    3.6811 O   0  0  0  0  0  0  0  0  0  0  0  0
    0.6072   -0.7558    0.8252 H   0  0  0  0  0  0  0  0  0  0  0  0
   -1.3940    0.2893    0.0439 H   0  0  0  0  0  0  0  0  0  0  0  0
   -1.0074   -0.4744    2.8436 H   0  0  0  0  0  0  0  0  0  0  0  0
   -3.3406   -0.2095    1.9009 H   0  0  0  0  0  0  0  0  0  0  0  0
   -3.1750    0.7288    3.3716 H   0  0  0  0  0  0  0  0  0  0  0  0
   -4.2206    2.2049    1.4999 H   0  0  0  0  0  0  0  0  0  0  0  0
   -2.4128    3.5435    0.4462 H   0  0  0  0  0  0  0  0  0  0  0  0
   -0.0396    2.7821    0.6462 H   0  0  0  0  0  0  0  0  0  0  0  0
    0.5006    1.5797    2.8455 H   0  0  0  0  0  0  0  0  0  0  0  0
   -1.8782    2.9365    3.4099 H   0  0  0  0  0  0  0  0  0  0  0  0
  1  2  1  0
  2  3  1  0
  3  4  1  0
  4  5  1  0
  5  6  2  0
  6  7  1  0
  7  8  1  0
  8  9  1  0
  7  2  1  0
  8  3  1  0
  1 10  1  0
  2 11  1  0
  3 12  1  0
  4 13  1  0
  4 14  1  0
  5 15  1  0
  6 16  1  0
  7 17  1  0
  8 18  1  0
  9 19  1  0
M  END
$$$$
