
     RDKit          3D

 19 21  0  0  0  0  0  0  0  0999 V2000
   -0.4376    1.3231   -0.7604 C   0  0  0  0  0  0  0  0  0  0  0  0
   -0.3454    0.3440   -1.9336 C   0  0  0  0  0  0  0  0  0  0  0  0
    0.7658   -0.6771   -1.8403 C   0  0  0  0  0  0  0  0  0  0  0  0
    1.2634   -1.0115   -0.5360 O   0  0  0  0  0  0  0  0  0  0  0  0
    2.1669   -0.4212   -1.4794 C   0  0  0  0  0  0  0  0  0  0  0  0
    2.8484    0.8848   -1.1344 C   0  0  0  0  0  0  0  0  0  0  0  0
    2.0870    2.1682   -0.8847 C   0  0  0  0  0  0  0  0  0  0  0  0
    1.2964    2.7310   -1.9397 O   0  0  0  0  0  0  0  0  0  0  0  0
    0.6434    2.3792   -0.7107 C   0  0  0  0  0  0  0  0  0  0  0  0
   -1.4028    1.8390   -0.8253 H   0  0  0  0  0  0  0  0  0  0  0  0
   -0.4363    0.7719    0.1859 H   0  0  0  0  0  0  0  0  0  0  0  0
   -1.2940   -0.2025   -1.9935 H   0  0  0  0  0  0  0  0  0  0  0  0
   -0.2389    0.8968   -2.8731 H   0  0  0  0  0  0  0  0  0  0  0  0
    0.6022   -1.5517   -2.4749 H   0  0  0  0  0  0  0  0  0  0  0  0
    2.8887   -1.1439   -1.8702 H   0  0  0  0  0  0  0  0  0  0  0  0
    3.4614    0.6961   -0.2419 H   0  0  0  0  0  0  0  0  0  0  0  0
    3.5670    1.0944   -1.9392 H   0  0  0  0  0  0  0  0  0  0  0  0
    2.7285    2.9126   -0.4049 H   0  0  0  0  0  0  0  0  0  0  0  0
    0.3708    3.2472   -0.1054 H   0  0  0  0  0  0  0  0  0  0  0  0
  1  2  1  0
  2  3  1  0
  3  4  1  0
  4  5  1  0
  5  6  1  0
  6  7  1  0
  7  8  1  0
  8  9  1  0
  9  1  1  0
  5  3  1  0
  9  7  1  0
  1 10  1  0
  1 11  1  0
  2 12  1  0
  2 13  1  0
  3 14  1  0
  5 15  1  0
  6 16  1  0
  6 17  1  0
  7 18  1  0
  9 19  1  0
M  END
$$$$
