
     RDKit          3D

 19 21  0  0  0  0  0  0  0  0999 V2000
   -2.8856    1.1436    4.9429 C   0  0  0  0  0  0  0  0  0  0  0  0
   -2.2739    0.9956    3.5888 C   0  0  0  0  0  0  0  0  0  0  0  0
   -2.4562    2.0632    2.6459 O   0  0  0  0  0  0  0  0  0  0  0  0
   -2.8298    0.7318    2.2460 C   0  0  0  0  0  0  0  0  0  0  0  0
   -1.5415    0.0068    1.7937 C   0  0  0  0  0  0  0  0  0  0  0  0
   -0.4278    0.9050    1.1574 C   0  0  0  0  0  0  0  0  0  0  0  0
    0.4010    0.2953    0.1947 O   0  0  0  0  0  0  0  0  0  0  0  0
    0.1864    1.1306    2.5783 C   0  0  0  0  0  0  0  0  0  0  0  0
   -0.9450    0.2747    3.2145 C   0  0  0  0  0  0  0  0  0  0  0  0
   -2.9340    0.1775    5.4556 H   0  0  0  0  0  0  0  0  0  0  0  0
   -2.2911    1.8239    5.5639 H   0  0  0  0  0  0  0  0  0  0  0  0
   -3.8968    1.5516    4.8630 H   0  0  0  0  0  0  0  0  0  0  0  0
   -3.8497    0.6006    1.8995 H   0  0  0  0  0  0  0  0  0  0  0  0
   -1.6645   -0.9998    1.3920 H   0  0  0  0  0  0  0  0  0  0  0  0
   -0.8122    1.8123    0.6902 H   0  0  0  0  0  0  0  0  0  0  0  0
    0.7826   -0.4992    0.5831 H   0  0  0  0  0  0  0  0  0  0  0  0
    1.1726    0.6633    2.6667 H   0  0  0  0  0  0  0  0  0  0  0  0
    0.2549    2.1687    2.9090 H   0  0  0  0  0  0  0  0  0  0  0  0
   -0.6715   -0.5443    3.8807 H   0  0  0  0  0  0  0  0  0  0  0  0
  1  2  1  0
  2  3  1  0
  3  4  1  0
  4  5  1  0
  5  6  1  0
  6  7  1  0
  6  8  1  0
  8  9  1  0
  4  2  1  0
  9  5  1  0
  9  2  1  0
  1 10  1  0
  1 11  1  0
  1 12  1  0
  4 13  1  0
  5 14  1  0
  6 15  1  0
  7 16  1  0
  8 17  1  0
  8 18  1  0
  9 19  1  0
M  END
$$$$
