
     RDKit          3D

 19 20  0  0  0  0  0  0  0  0999 V2000
   -2.8853    3.3375   -1.9864 C   0  0  0  0  0  0  0  0  0  0  0  0
   -1.4450    3.0988   -1.6412 C   0  0  0  0  0  0  0  0  0  0  0  0
   -0.2705    3.6267   -2.4479 C   0  0  0  0  0  0  0  0  0  0  0  0
   -0.3833    3.9627   -0.9947 C   0  0  0  0  0  0  0  0  0  0  0  0
    0.1231    2.8906   -0.1930 O   0  0  0  0  0  0  0  0  0  0  0  0
   -0.9404    2.0186   -0.6759 C   0  0  0  0  0  0  0  0  0  0  0  0
   -0.4383    0.6724   -1.1937 C   0  0  0  0  0  0  0  0  0  0  0  0
    0.3199   -0.0917   -0.1263 C   0  0  0  0  0  0  0  0  0  0  0  0
    0.0058   -1.1799    0.2841 O   0  0  0  0  0  0  0  0  0  0  0  0
   -3.5236    3.2778   -1.0979 H   0  0  0  0  0  0  0  0  0  0  0  0
   -3.0241    4.3278   -2.4313 H   0  0  0  0  0  0  0  0  0  0  0  0
   -3.2503    2.6002   -2.7114 H   0  0  0  0  0  0  0  0  0  0  0  0
    0.5361    2.9832   -2.7880 H   0  0  0  0  0  0  0  0  0  0  0  0
   -0.5372    4.4240   -3.1356 H   0  0  0  0  0  0  0  0  0  0  0  0
   -0.3997    4.9564   -0.5621 H   0  0  0  0  0  0  0  0  0  0  0  0
   -1.6649    1.8594    0.1348 H   0  0  0  0  0  0  0  0  0  0  0  0
   -1.2806    0.0608   -1.5315 H   0  0  0  0  0  0  0  0  0  0  0  0
    0.2426    0.8419   -2.0371 H   0  0  0  0  0  0  0  0  0  0  0  0
    1.2124    0.4399    0.2680 H   0  0  0  0  0  0  0  0  0  0  0  0
  1  2  1  0
  2  3  1  0
  3  4  1  0
  4  5  1  0
  5  6  1  0
  6  7  1  0
  7  8  1  0
  8  9  2  0
  4  2  1  0
  6  2  1  0
  1 10  1  0
  1 11  1  0
  1 12  1  0
  3 13  1  0
  3 14  1  0
  4 15  1  0
  6 16  1  0
  7 17  1  0
  7 18  1  0
  8 19  1  0
M  END
$$$$
