
     RDKit          3D

 19 20  0  0  0  0  0  0  0  0999 V2000
   -0.5417   -2.8028    2.1680 C   0  0  0  0  0  0  0  0  0  0  0  0
   -0.4488   -1.5076    2.9888 C   0  0  0  0  0  0  0  0  0  0  0  0
    0.2548   -1.7547    4.3126 C   0  0  0  0  0  0  0  0  0  0  0  0
    1.1762   -1.1068    4.7371 O   0  0  0  0  0  0  0  0  0  0  0  0
   -1.8281   -0.9305    3.2852 C   0  0  0  0  0  0  0  0  0  0  0  0
   -1.8782    0.5242    3.7253 C   0  0  0  0  0  0  0  0  0  0  0  0
   -3.3299    0.9262    3.9567 C   0  0  0  0  0  0  0  0  0  0  0  0
   -3.7171    0.4286    2.6429 O   0  0  0  0  0  0  0  0  0  0  0  0
   -2.3557    0.1201    2.3509 C   0  0  0  0  0  0  0  0  0  0  0  0
   -1.0680   -3.5844    2.7272 H   0  0  0  0  0  0  0  0  0  0  0  0
   -1.0947   -2.6287    1.2409 H   0  0  0  0  0  0  0  0  0  0  0  0
    0.4514   -3.1829    1.9101 H   0  0  0  0  0  0  0  0  0  0  0  0
    0.1473   -0.7584    2.4548 H   0  0  0  0  0  0  0  0  0  0  0  0
   -0.1761   -2.5982    4.9043 H   0  0  0  0  0  0  0  0  0  0  0  0
   -2.5499   -1.6299    3.7065 H   0  0  0  0  0  0  0  0  0  0  0  0
   -0.9973    1.0665    4.0413 H   0  0  0  0  0  0  0  0  0  0  0  0
   -3.8760    0.4303    4.7677 H   0  0  0  0  0  0  0  0  0  0  0  0
   -3.4831    2.0095    4.0126 H   0  0  0  0  0  0  0  0  0  0  0  0
   -1.9871    0.3107    1.3489 H   0  0  0  0  0  0  0  0  0  0  0  0
  1  2  1  0
  2  3  1  0
  3  4  2  0
  2  5  1  0
  5  6  1  0
  6  7  1  0
  7  8  1  0
  8  9  1  0
  9  5  1  0
  9  6  1  0
  1 10  1  0
  1 11  1  0
  1 12  1  0
  2 13  1  0
  3 14  1  0
  5 15  1  0
  6 16  1  0
  7 17  1  0
  7 18  1  0
  9 19  1  0
M  END
$$$$
