gdb 2226	2.6869716	1.9359995	1.7988252	2.2544	72.64	-0.25341	0.09002	0.34343	889.0474	0.160111	-422.562602	-422.556006	-422.555061	-422.593088	27.935
 OpenBabel02181911413D

 19 21  0  0  1  0  0  0  0  0999 V2000
    2.5011   -1.1311   -1.8960 C   0  0  0  0  0  0  0  0  0  0  0  0
    2.2993    0.0785   -1.0097 C   0  0  1  0  0  0  0  0  0  0  0  0
    0.8676    0.6361   -0.7826 C   0  0  0  0  0  0  0  0  0  0  0  0
    1.3065    1.4321    0.4558 C   0  0  1  0  0  0  0  0  0  0  0  0
    1.6486    0.3213    1.3009 O   0  0  0  0  0  0  0  0  0  0  0  0
    2.7834   -0.0535    0.5414 C   0  0  2  0  0  0  0  0  0  0  0  0
    3.6338    1.0606    0.7442 O   0  0  0  0  0  0  0  0  0  0  0  0
    2.7847    1.9826    0.0412 C   0  0  1  0  0  0  0  0  0  0  0  0
    2.9833    1.4239   -1.3759 C   0  0  0  0  0  0  0  0  0  0  0  0
    1.9565   -2.0004   -1.5113 H   0  0  0  0  0  0  0  0  0  0  0  0
    2.1436   -0.9414   -2.9141 H   0  0  0  0  0  0  0  0  0  0  0  0
    3.5607   -1.4017   -1.9631 H   0  0  0  0  0  0  0  0  0  0  0  0
    0.5079    1.2189   -1.6337 H   0  0  0  0  0  0  0  0  0  0  0  0
    0.1193   -0.1072   -0.5028 H   0  0  0  0  0  0  0  0  0  0  0  0
    0.6232    2.1144    0.9561 H   0  0  0  0  0  0  0  0  0  0  0  0
    3.2275   -0.9835    0.8898 H   0  0  0  0  0  0  0  0  0  0  0  0
    3.0371    3.0133    0.2792 H   0  0  0  0  0  0  0  0  0  0  0  0
    2.4660    1.9481   -2.1828 H   0  0  0  0  0  0  0  0  0  0  0  0
    4.0482    1.3559   -1.6045 H   0  0  0  0  0  0  0  0  0  0  0  0
  1 10  1  0  0  0  0
  2  1  1  6  0  0  0
  2  3  1  0  0  0  0
  2  6  1  0  0  0  0
  3 14  1  0  0  0  0
  3  4  1  0  0  0  0
  4 15  1  1  0  0  0
  4  5  1  0  0  0  0
  6  7  1  0  0  0  0
  6 16  1  1  0  0  0
  6  5  1  0  0  0  0
  8 17  1  1  0  0  0
  8  4  1  0  0  0  0
  8  7  1  0  0  0  0
  9  2  1  0  0  0  0
  9  8  1  0  0  0  0
 11  1  1  0  0  0  0
 12  1  1  0  0  0  0
 13  3  1  0  0  0  0
 18  9  1  0  0  0  0
 19  9  1  0  0  0  0
M TOR 0 0 1 2 3
M TOR 1 0 1 2 12
M TOR 2 0 1 2 13
M TOR 3 0 1 5 4
M TOR 4 0 1 5 6
M TOR 5 0 1 5 15
M TOR 6 0 1 8 7
M TOR 7 0 1 8 17
M TOR 8 0 1 8 18
M TOR 9 1 2 3 4
M TOR 10 1 2 3 7
M TOR 11 1 2 3 14
M TOR 12 1 5 4 3
M TOR 13 1 5 6 7
M TOR 14 1 8 7 3
M TOR 15 1 8 7 6
M TOR 16 1 8 7 16
M TOR 17 2 1 0 9
M TOR 18 2 1 0 10
M TOR 19 2 1 0 11
M TOR 20 2 1 5 4
M TOR 21 2 1 5 6
M TOR 22 2 1 5 15
M TOR 23 2 1 8 7
M TOR 24 2 1 8 17
M TOR 25 2 1 8 18
M TOR 26 2 3 4 5
M TOR 27 2 3 7 6
M TOR 28 2 3 7 8
M TOR 29 2 3 7 16
M TOR 30 3 2 1 5
M TOR 31 3 2 1 8
M TOR 32 3 4 5 6
M TOR 33 3 4 5 15
M TOR 34 3 7 6 5
M TOR 35 3 7 8 17
M TOR 36 3 7 8 18
M TOR 37 4 3 2 12
M TOR 38 4 3 2 13
M TOR 39 4 3 7 6
M TOR 40 4 3 7 8
M TOR 41 4 3 7 16
M TOR 42 4 5 1 8
M TOR 43 4 5 6 7
M TOR 44 5 1 0 9
M TOR 45 5 1 0 10
M TOR 46 5 1 0 11
M TOR 47 5 1 2 12
M TOR 48 5 1 2 13
M TOR 49 5 1 8 7
M TOR 50 5 1 8 17
M TOR 51 5 1 8 18
M TOR 52 5 4 3 7
M TOR 53 5 4 3 14
M TOR 54 5 6 7 8
M TOR 55 5 6 7 16
M TOR 56 6 5 1 8
M TOR 57 6 7 3 14
M TOR 58 6 7 8 17
M TOR 59 6 7 8 18
M TOR 60 7 3 2 12
M TOR 61 7 3 2 13
M TOR 62 7 6 5 15
M TOR 63 8 1 0 9
M TOR 64 8 1 0 10
M TOR 65 8 1 0 11
M TOR 66 8 1 2 12
M TOR 67 8 1 2 13
M TOR 68 8 1 5 15
M TOR 69 8 7 3 14
M  END
$$$$
