gdb 1557	2.8253677	1.7076772	1.5253254	1.9243	73.62	-0.23823	0.00284	0.24107	954.8317	0.158055	-422.570097	-422.562512	-422.561568	-422.601475	31.203
 OpenBabel02181911403D

 19 20  0  0  1  0  0  0  0  0999 V2000
   -0.1223   -0.0739    0.0293 C   0  0  0  0  0  0  0  0  0  0  0  0
    1.3940   -0.0698   -0.0573 C   0  0  2  0  0  0  0  0  0  0  0  0
    1.8721   -0.7985    1.0673 O   0  0  0  0  0  0  0  0  0  0  0  0
    2.0664    1.3449   -0.1286 C   0  0  0  0  0  0  0  0  0  0  0  0
    3.0352    1.1530   -1.3379 C   0  0  1  0  0  0  0  0  0  0  0  0
    3.3598   -0.2463   -1.2277 O   0  0  0  0  0  0  0  0  0  0  0  0
    2.0045   -0.7219   -1.3505 C   0  0  2  0  0  0  0  0  0  0  0  0
    1.5174    0.0109   -2.5905 C   0  0  0  0  0  0  0  0  0  0  0  0
    2.1675    1.1738   -2.5940 C   0  0  0  0  0  0  0  0  0  0  0  0
   -0.4466    0.3927    0.9640 H   0  0  0  0  0  0  0  0  0  0  0  0
   -0.5639    0.4761   -0.8055 H   0  0  0  0  0  0  0  0  0  0  0  0
   -0.5018   -1.1005    0.0193 H   0  0  0  0  0  0  0  0  0  0  0  0
    2.8259   -0.8808    0.9408 H   0  0  0  0  0  0  0  0  0  0  0  0
    1.3583    2.1611   -0.2847 H   0  0  0  0  0  0  0  0  0  0  0  0
    2.6087    1.5268    0.8016 H   0  0  0  0  0  0  0  0  0  0  0  0
    3.9415    1.7568   -1.3357 H   0  0  0  0  0  0  0  0  0  0  0  0
    1.9707   -1.8108   -1.3457 H   0  0  0  0  0  0  0  0  0  0  0  0
    0.7430   -0.3366   -3.2598 H   0  0  0  0  0  0  0  0  0  0  0  0
    2.0495    2.0181   -3.2594 H   0  0  0  0  0  0  0  0  0  0  0  0
  1 10  1  0  0  0  0
  2  1  1  0  0  0  0
  2  3  1  1  0  0  0
  4  2  1  0  0  0  0
  4 15  1  0  0  0  0
  5 16  1  6  0  0  0
  5  6  1  0  0  0  0
  5  4  1  0  0  0  0
  7 17  1  6  0  0  0
  7  6  1  0  0  0  0
  7  2  1  0  0  0  0
  8  7  1  0  0  0  0
  9  8  2  0  0  0  0
  9  5  1  0  0  0  0
 11  1  1  0  0  0  0
 12  1  1  0  0  0  0
 13  3  1  0  0  0  0
 14  4  1  0  0  0  0
 18  8  1  0  0  0  0
 19  9  1  0  0  0  0
M TOR 0 0 1 2 12
M TOR 1 0 1 3 4
M TOR 2 0 1 3 13
M TOR 3 0 1 3 14
M TOR 4 0 1 6 5
M TOR 5 0 1 6 7
M TOR 6 0 1 6 16
M TOR 7 1 3 4 5
M TOR 8 1 3 4 8
M TOR 9 1 3 4 15
M TOR 10 1 6 5 4
M TOR 11 1 6 7 8
M TOR 12 1 6 7 17
M TOR 13 2 1 0 9
M TOR 14 2 1 0 10
M TOR 15 2 1 0 11
M TOR 16 2 1 3 4
M TOR 17 2 1 3 13
M TOR 18 2 1 3 14
M TOR 19 2 1 6 5
M TOR 20 2 1 6 7
M TOR 21 2 1 6 16
M TOR 22 3 1 0 9
M TOR 23 3 1 0 10
M TOR 24 3 1 0 11
M TOR 25 3 1 2 12
M TOR 26 3 1 6 5
M TOR 27 3 1 6 7
M TOR 28 3 1 6 16
M TOR 29 3 4 5 6
M TOR 30 3 4 8 7
M TOR 31 3 4 8 18
M TOR 32 4 3 1 6
M TOR 33 4 5 6 7
M TOR 34 4 5 6 16
M TOR 35 4 8 7 6
M TOR 36 4 8 7 17
M TOR 37 5 4 3 13
M TOR 38 5 4 3 14
M TOR 39 5 4 8 7
M TOR 40 5 4 8 18
M TOR 41 5 6 7 8
M TOR 42 5 6 7 17
M TOR 43 6 1 0 9
M TOR 44 6 1 0 10
M TOR 45 6 1 0 11
M TOR 46 6 1 2 12
M TOR 47 6 1 3 13
M TOR 48 6 1 3 14
M TOR 49 6 5 4 8
M TOR 50 6 5 4 15
M TOR 51 6 7 8 18
M TOR 52 7 8 4 15
M TOR 53 8 4 3 13
M TOR 54 8 4 3 14
M TOR 55 8 7 6 16
M  END
$$$$
