gdb 5469	3.2889631	1.3440475	1.1286291	2.1475	75.71	-0.227	0.08531	0.31231	1134.1683	0.15506	-422.460912	-422.452445	-422.451501	-422.493907	31.941
 OpenBabel02181911423D

 19 21  0  0  1  0  0  0  0  0999 V2000
    1.6527   -0.3545    0.0830 C   0  0  0  0  0  0  0  0  0  0  0  0
    0.2485   -0.2133    0.0757 O   0  0  0  0  0  0  0  0  0  0  0  0
   -0.2382    0.5442    1.1536 C   0  0  1  0  0  0  0  0  0  0  0  0
   -0.2436    2.0860    1.0261 C   0  0  2  0  0  0  0  0  0  0  0  0
   -1.5525    2.1861    1.8626 C   0  0  1  0  0  0  0  0  0  0  0  0
   -2.2615    3.0077    0.8934 O   0  0  0  0  0  0  0  0  0  0  0  0
   -1.5005    2.0523    0.0808 C   0  0  1  0  0  0  0  0  0  0  0  0
   -1.6041    2.1148   -1.4071 C   0  0  0  0  0  0  0  0  0  0  0  0
   -1.7349    0.8559    1.0745 C   0  0  1  0  0  0  0  0  0  0  0  0
    2.0053   -0.8350    1.0088 H   0  0  0  0  0  0  0  0  0  0  0  0
    1.9208   -0.9872   -0.7663 H   0  0  0  0  0  0  0  0  0  0  0  0
    2.1655    0.6135   -0.0191 H   0  0  0  0  0  0  0  0  0  0  0  0
    0.1317    0.1432    2.1093 H   0  0  0  0  0  0  0  0  0  0  0  0
    0.5727    2.8077    1.0043 H   0  0  0  0  0  0  0  0  0  0  0  0
   -1.6871    2.3899    2.9234 H   0  0  0  0  0  0  0  0  0  0  0  0
   -0.9874    1.3269   -1.8460 H   0  0  0  0  0  0  0  0  0  0  0  0
   -2.6420    1.9727   -1.7241 H   0  0  0  0  0  0  0  0  0  0  0  0
   -1.2611    3.0867   -1.7755 H   0  0  0  0  0  0  0  0  0  0  0  0
   -2.5905    0.1821    1.1026 H   0  0  0  0  0  0  0  0  0  0  0  0
  1 10  1  0  0  0  0
  2  1  1  0  0  0  0
  2  3  1  0  0  0  0
  3 13  1  1  0  0  0
  4 14  1  6  0  0  0
  4  3  1  0  0  0  0
  4  5  1  0  0  0  0
  5 15  1  1  0  0  0
  6  5  1  0  0  0  0
  7  8  1  6  0  0  0
  7  6  1  0  0  0  0
  7  4  1  0  0  0  0
  7  9  1  0  0  0  0
  9 19  1  1  0  0  0
  9  3  1  0  0  0  0
  9  5  1  0  0  0  0
 11  1  1  0  0  0  0
 12  1  1  0  0  0  0
 16  8  1  0  0  0  0
 17  8  1  0  0  0  0
 18  8  1  0  0  0  0
M TOR 0 0 1 2 3
M TOR 1 0 1 2 8
M TOR 2 0 1 2 12
M TOR 3 1 2 3 4
M TOR 4 1 2 3 6
M TOR 5 1 2 3 13
M TOR 6 1 2 8 4
M TOR 7 1 2 8 6
M TOR 8 1 2 8 18
M TOR 9 2 1 0 9
M TOR 10 2 1 0 10
M TOR 11 2 1 0 11
M TOR 12 2 3 4 5
M TOR 13 2 3 4 8
M TOR 14 2 3 4 14
M TOR 15 2 3 6 5
M TOR 16 2 3 6 7
M TOR 17 2 3 6 8
M TOR 18 2 8 4 5
M TOR 19 2 8 4 14
M TOR 20 2 8 6 5
M TOR 21 2 8 6 7
M TOR 22 3 2 8 18
M TOR 23 3 4 5 6
M TOR 24 3 4 8 6
M TOR 25 3 4 8 18
M TOR 26 3 6 7 15
M TOR 27 3 6 7 16
M TOR 28 3 6 7 17
M TOR 29 3 6 8 18
M TOR 30 4 3 2 12
M TOR 31 4 3 6 7
M TOR 32 4 5 6 7
M TOR 33 4 5 6 8
M TOR 34 4 8 2 12
M TOR 35 4 8 6 7
M TOR 36 5 4 3 13
M TOR 37 5 4 8 18
M TOR 38 5 6 3 13
M TOR 39 5 6 7 15
M TOR 40 5 6 7 16
M TOR 41 5 6 7 17
M TOR 42 5 6 8 18
M TOR 43 6 3 2 12
M TOR 44 6 3 4 14
M TOR 45 6 5 4 14
M TOR 46 6 8 2 12
M TOR 47 6 8 4 14
M TOR 48 7 6 3 13
M TOR 49 7 6 8 18
M TOR 50 8 2 3 13
M TOR 51 8 4 3 13
M TOR 52 8 6 3 13
M TOR 53 8 6 7 15
M TOR 54 8 6 7 16
M TOR 55 8 6 7 17
M  END
$$$$
