
     RDKit          3D

 19 20  0  0  0  0  0  0  0  0999 V2000
   -4.3239   -0.4930    1.2022 C   0  0  0  0  0  0  0  0  0  0  0  0
   -2.8916    0.0218    1.3844 C   0  0  0  0  0  0  0  0  0  0  0  0
   -2.0035   -1.0151    2.1082 C   0  0  0  0  0  0  0  0  0  0  0  0
   -1.5454   -1.9049    1.0885 O   0  0  0  0  0  0  0  0  0  0  0  0
   -1.2818   -1.1140   -0.0459 C   0  0  0  0  0  0  0  0  0  0  0  0
   -2.1657    0.1816    0.0322 C   0  0  0  0  0  0  0  0  0  0  0  0
   -0.8966    1.0847    0.0139 C   0  0  0  0  0  0  0  0  0  0  0  0
   -0.0248   -0.1855    0.0384 C   0  0  0  0  0  0  0  0  0  0  0  0
    1.1494   -0.3869    0.1274 O   0  0  0  0  0  0  0  0  0  0  0  0
   -4.8209   -0.6243    2.1688 H   0  0  0  0  0  0  0  0  0  0  0  0
   -4.9230    0.2042    0.6080 H   0  0  0  0  0  0  0  0  0  0  0  0
   -4.3244   -1.4611    0.6905 H   0  0  0  0  0  0  0  0  0  0  0  0
   -2.9060    0.9668    1.9378 H   0  0  0  0  0  0  0  0  0  0  0  0
   -1.1496   -0.5299    2.6057 H   0  0  0  0  0  0  0  0  0  0  0  0
   -2.5401   -1.6118    2.8498 H   0  0  0  0  0  0  0  0  0  0  0  0
   -1.3238   -1.7446   -0.9379 H   0  0  0  0  0  0  0  0  0  0  0  0
   -2.8561    0.3513   -0.7940 H   0  0  0  0  0  0  0  0  0  0  0  0
   -0.7642    1.6735   -0.8991 H   0  0  0  0  0  0  0  0  0  0  0  0
   -0.7533    1.7506    0.8714 H   0  0  0  0  0  0  0  0  0  0  0  0
  1  2  1  0
  2  3  1  0
  3  4  1  0
  4  5  1  0
  5  6  1  0
  6  7  1  0
  7  8  1  0
  8  9  2  0
  6  2  1  0
  8  5  1  0
  1 10  1  0
  1 11  1  0
  1 12  1  0
  2 13  1  0
  3 14  1  0
  3 15  1  0
  5 16  1  0
  6 17  1  0
  7 18  1  0
  7 19  1  0
M  END
$$$$
