
     RDKit          3D

 19 20  0  0  0  0  0  0  0  0999 V2000
   -1.9871    2.3886    3.0397 O   0  0  0  0  0  0  0  0  0  0  0  0
   -2.1358    2.5664    1.6756 C   0  0  0  0  0  0  0  0  0  0  0  0
   -2.9988    3.6411    1.0820 C   0  0  0  0  0  0  0  0  0  0  0  0
   -3.3231    2.1869    0.8046 C   0  0  0  0  0  0  0  0  0  0  0  0
   -2.3780    1.6561   -0.2794 C   0  0  0  0  0  0  0  0  0  0  0  0
   -1.1495    2.0071    0.6322 C   0  0  0  0  0  0  0  0  0  0  0  0
   -0.3764    0.7788    1.1304 C   0  0  0  0  0  0  0  0  0  0  0  0
    0.4589    0.1918    0.0191 C   0  0  0  0  0  0  0  0  0  0  0  0
    0.2635   -0.8772   -0.5012 O   0  0  0  0  0  0  0  0  0  0  0  0
   -1.5830    3.1811    3.4098 H   0  0  0  0  0  0  0  0  0  0  0  0
   -3.6606    4.1198    1.7973 H   0  0  0  0  0  0  0  0  0  0  0  0
   -2.6370    4.2917    0.2876 H   0  0  0  0  0  0  0  0  0  0  0  0
   -4.2768    1.7590    1.0865 H   0  0  0  0  0  0  0  0  0  0  0  0
   -2.4630    0.5810   -0.4528 H   0  0  0  0  0  0  0  0  0  0  0  0
   -2.4264    2.1728   -1.2431 H   0  0  0  0  0  0  0  0  0  0  0  0
   -0.4503    2.7453    0.2175 H   0  0  0  0  0  0  0  0  0  0  0  0
    0.2871    1.0836    1.9506 H   0  0  0  0  0  0  0  0  0  0  0  0
   -1.0608    0.0147    1.5093 H   0  0  0  0  0  0  0  0  0  0  0  0
    1.2916    0.8496   -0.3271 H   0  0  0  0  0  0  0  0  0  0  0  0
  1  2  1  0
  2  3  1  0
  3  4  1  0
  4  5  1  0
  5  6  1  0
  6  7  1  0
  7  8  1  0
  8  9  2  0
  4  2  1  0
  6  2  1  0
  1 10  1  0
  3 11  1  0
  3 12  1  0
  4 13  1  0
  5 14  1  0
  5 15  1  0
  6 16  1  0
  7 17  1  0
  7 18  1  0
  8 19  1  0
M  END
$$$$
