gdb 452	3.7780088	0.9735136	0.8967305	3.2958	76.34	-0.26211	0.05736	0.31947000000000003	1353.5349	0.155949	-422.496919	-422.48844	-422.487495	-422.53075	31.399
 OpenBabel02181911403D

 19 21  0  0  1  0  0  0  0  0999 V2000
    2.0457    1.4096    3.0690 C   0  0  0  0  0  0  0  0  0  0  0  0
    2.0373   -0.0057    2.9023 O   0  0  0  0  0  0  0  0  0  0  0  0
    1.6662    0.8062    1.7832 C   0  0  1  0  0  0  0  0  0  0  0  0
    0.2414    0.7345    1.3557 C   0  0  2  0  0  0  0  0  0  0  0  0
   -0.0312   -0.0348    0.1696 O   0  0  0  0  0  0  0  0  0  0  0  0
   -0.2386    1.3629    0.1188 C   0  0  0  0  0  0  0  0  0  0  0  0
   -1.5860    2.0416   -0.1417 C   0  0  0  0  0  0  0  0  0  0  0  0
   -0.7943    3.2318   -0.7639 C   0  0  0  0  0  0  0  0  0  0  0  0
    0.4807    2.3366   -0.8230 C   0  0  0  0  0  0  0  0  0  0  0  0
    1.2735    1.8079    3.7267 H   0  0  0  0  0  0  0  0  0  0  0  0
    3.0273    1.8688    3.1771 H   0  0  0  0  0  0  0  0  0  0  0  0
    2.3894    0.8088    0.9684 H   0  0  0  0  0  0  0  0  0  0  0  0
   -0.4653    0.5734    2.1715 H   0  0  0  0  0  0  0  0  0  0  0  0
   -2.1643    1.4892   -0.8882 H   0  0  0  0  0  0  0  0  0  0  0  0
   -2.2259    2.2467    0.7198 H   0  0  0  0  0  0  0  0  0  0  0  0
   -1.1625    3.6201   -1.7145 H   0  0  0  0  0  0  0  0  0  0  0  0
   -0.6822    4.0642   -0.0657 H   0  0  0  0  0  0  0  0  0  0  0  0
    0.6321    1.8887   -1.8095 H   0  0  0  0  0  0  0  0  0  0  0  0
    1.4236    2.7739   -0.4863 H   0  0  0  0  0  0  0  0  0  0  0  0
  1 11  1  0  0  0  0
  1 10  1  0  0  0  0
  2  1  1  0  0  0  0
  3 12  1  6  0  0  0
  3  2  1  0  0  0  0
  3  1  1  0  0  0  0
  4  3  1  0  0  0  0
  4 13  1  1  0  0  0
  5  4  1  0  0  0  0
  6  5  1  0  0  0  0
  6  4  1  0  0  0  0
  7  6  1  0  0  0  0
  7 15  1  0  0  0  0
  8  7  1  0  0  0  0
  8 17  1  0  0  0  0
  9  8  1  0  0  0  0
  9 19  1  0  0  0  0
  9  6  1  0  0  0  0
 14  7  1  0  0  0  0
 16  8  1  0  0  0  0
 18  9  1  0  0  0  0
M TOR 0 0 1 2 3
M TOR 1 0 1 2 11
M TOR 2 0 2 3 4
M TOR 3 0 2 3 5
M TOR 4 0 2 3 12
M TOR 5 1 2 0 9
M TOR 6 1 2 0 10
M TOR 7 1 2 3 4
M TOR 8 1 2 3 5
M TOR 9 1 2 3 12
M TOR 10 2 3 4 5
M TOR 11 2 3 5 6
M TOR 12 2 3 5 8
M TOR 13 3 2 0 9
M TOR 14 3 2 0 10
M TOR 15 3 4 5 6
M TOR 16 3 4 5 8
M TOR 17 3 5 6 7
M TOR 18 3 5 6 13
M TOR 19 3 5 6 14
M TOR 20 3 5 8 7
M TOR 21 3 5 8 17
M TOR 22 3 5 8 18
M TOR 23 4 3 2 11
M TOR 24 4 5 3 12
M TOR 25 4 5 6 7
M TOR 26 4 5 6 13
M TOR 27 4 5 6 14
M TOR 28 4 5 8 7
M TOR 29 4 5 8 17
M TOR 30 4 5 8 18
M TOR 31 5 3 2 11
M TOR 32 5 6 7 8
M TOR 33 5 6 7 15
M TOR 34 5 6 7 16
M TOR 35 5 8 7 15
M TOR 36 5 8 7 16
M TOR 37 6 5 3 12
M TOR 38 6 5 8 17
M TOR 39 6 5 8 18
M TOR 40 6 7 8 17
M TOR 41 6 7 8 18
M TOR 42 8 5 3 12
M TOR 43 8 5 6 13
M TOR 44 8 5 6 14
M TOR 45 8 7 6 13
M TOR 46 8 7 6 14
M  END
$$$$
