gdb 5006	4.0789721	1.1344448	1.0393825	3.8067	75.57	-0.23148	-0.00198	0.22949999999999998	1175.1958	0.157662	-422.571971	-422.563796	-422.562852	-422.604625	31.556
 OpenBabel02181911413D

 19 20  0  0  1  0  0  0  0  0999 V2000
   -2.1059    5.0582    1.2955 O   0  0  0  0  0  0  0  0  0  0  0  0
   -1.0249    4.2075    0.9404 C   0  0  0  0  0  0  0  0  0  0  0  0
   -1.1634    3.8523   -0.5170 C   0  0  2  0  0  0  0  0  0  0  0  0
   -1.3143    4.9467   -1.6181 C   0  0  0  0  0  0  0  0  0  0  0  0
   -1.9056    3.7623   -2.4535 C   0  0  2  0  0  0  0  0  0  0  0  0
   -2.4794    3.2441   -1.0923 C   0  0  0  0  0  0  0  0  0  0  0  0
   -0.6730    2.8810   -2.5758 C   0  0  0  0  0  0  0  0  0  0  0  0
   -0.2430    2.2921   -3.5302 O   0  0  0  0  0  0  0  0  0  0  0  0
   -0.0962    2.9300   -1.1390 C   0  0  0  0  0  0  0  0  0  0  0  0
   -2.0201    5.2841    2.2259 H   0  0  0  0  0  0  0  0  0  0  0  0
   -0.0546    4.7042    1.1069 H   0  0  0  0  0  0  0  0  0  0  0  0
   -1.0271    3.2854    1.5451 H   0  0  0  0  0  0  0  0  0  0  0  0
   -2.0748    5.6840   -1.3586 H   0  0  0  0  0  0  0  0  0  0  0  0
   -0.4099    5.4393   -1.9879 H   0  0  0  0  0  0  0  0  0  0  0  0
   -2.5108    3.9007   -3.3463 H   0  0  0  0  0  0  0  0  0  0  0  0
   -3.3597    3.8065   -0.7788 H   0  0  0  0  0  0  0  0  0  0  0  0
   -2.6478    2.1689   -0.9781 H   0  0  0  0  0  0  0  0  0  0  0  0
   -0.0562    1.9299   -0.6947 H   0  0  0  0  0  0  0  0  0  0  0  0
    0.9153    3.3495   -1.1330 H   0  0  0  0  0  0  0  0  0  0  0  0
  1 10  1  0  0  0  0
  2 11  1  0  0  0  0
  2  1  1  0  0  0  0
  2 12  1  0  0  0  0
  3  2  1  1  0  0  0
  4 13  1  0  0  0  0
  4  3  1  0  0  0  0
  5 15  1  6  0  0  0
  5  4  1  0  0  0  0
  5  6  1  0  0  0  0
  6 17  1  0  0  0  0
  6 16  1  0  0  0  0
  6  3  1  0  0  0  0
  7  5  1  0  0  0  0
  7  9  1  0  0  0  0
  8  7  2  0  0  0  0
  9 19  1  0  0  0  0
  9 18  1  0  0  0  0
  9  3  1  0  0  0  0
 14  4  1  0  0  0  0
M TOR 0 0 1 2 3
M TOR 1 0 1 2 5
M TOR 2 0 1 2 8
M TOR 3 1 2 3 4
M TOR 4 1 2 3 12
M TOR 5 1 2 3 13
M TOR 6 1 2 5 4
M TOR 7 1 2 5 15
M TOR 8 1 2 5 16
M TOR 9 1 2 8 6
M TOR 10 1 2 8 17
M TOR 11 1 2 8 18
M TOR 12 2 1 0 9
M TOR 13 2 3 4 5
M TOR 14 2 3 4 6
M TOR 15 2 3 4 14
M TOR 16 2 5 4 6
M TOR 17 2 5 4 14
M TOR 18 2 8 6 4
M TOR 19 2 8 6 7
M TOR 20 3 2 1 10
M TOR 21 3 2 1 11
M TOR 22 3 2 5 15
M TOR 23 3 2 5 16
M TOR 24 3 2 8 6
M TOR 25 3 2 8 17
M TOR 26 3 2 8 18
M TOR 27 3 4 5 15
M TOR 28 3 4 5 16
M TOR 29 3 4 6 7
M TOR 30 3 4 6 8
M TOR 31 4 3 2 8
M TOR 32 4 5 2 8
M TOR 33 4 6 8 17
M TOR 34 4 6 8 18
M TOR 35 5 2 1 10
M TOR 36 5 2 1 11
M TOR 37 5 2 3 12
M TOR 38 5 2 3 13
M TOR 39 5 2 8 6
M TOR 40 5 2 8 17
M TOR 41 5 2 8 18
M TOR 42 5 4 3 12
M TOR 43 5 4 3 13
M TOR 44 5 4 6 7
M TOR 45 5 4 6 8
M TOR 46 6 4 3 12
M TOR 47 6 4 3 13
M TOR 48 6 4 5 15
M TOR 49 6 4 5 16
M TOR 50 7 6 4 14
M TOR 51 7 6 8 17
M TOR 52 7 6 8 18
M TOR 53 8 2 1 10
M TOR 54 8 2 1 11
M TOR 55 8 2 3 12
M TOR 56 8 2 3 13
M TOR 57 8 2 5 15
M TOR 58 8 2 5 16
M TOR 59 8 6 4 14
M  END
$$$$
