gdb 3118	2.1465416	1.7919448	1.2855985	0.4471	75.22	-0.24723	0.07897	0.3262	1071.1469	0.154382	-422.501913	-422.492927	-422.491983	-422.535246	33.478
 OpenBabel02181911413D

 19 21  0  0  1  0  0  0  0  0999 V2000
    0.6521    0.8988   -0.1047 C   0  0  0  0  0  0  0  0  0  0  0  0
    0.9251   -0.5645    0.2235 C   0  0  2  0  0  0  0  0  0  0  0  0
    2.0854   -0.8171    1.2105 C   0  0  1  0  0  0  0  0  0  0  0  0
    2.3052   -2.2336    1.2534 O   0  0  0  0  0  0  0  0  0  0  0  0
    2.9173   -1.4827    0.1867 C   0  0  2  0  0  0  0  0  0  0  0  0
    4.3857   -1.5898   -0.0492 C   0  0  0  0  0  0  0  0  0  0  0  0
    1.8011   -1.2899   -0.8368 C   0  0  1  0  0  0  0  0  0  0  0  0
    1.4738   -2.0466   -2.0406 C   0  0  0  0  0  0  0  0  0  0  0  0
    2.0439   -0.7247   -2.1127 O   0  0  0  0  0  0  0  0  0  0  0  0
    0.1757    1.4029    0.7421 H   0  0  0  0  0  0  0  0  0  0  0  0
    1.5773    1.4316   -0.3456 H   0  0  0  0  0  0  0  0  0  0  0  0
   -0.0099    0.9853   -0.9707 H   0  0  0  0  0  0  0  0  0  0  0  0
    0.0071   -1.0910    0.5012 H   0  0  0  0  0  0  0  0  0  0  0  0
    2.3729   -0.2370    2.0810 H   0  0  0  0  0  0  0  0  0  0  0  0
    4.9344   -1.4878    0.8906 H   0  0  0  0  0  0  0  0  0  0  0  0
    4.6397   -2.5612   -0.4881 H   0  0  0  0  0  0  0  0  0  0  0  0
    4.7138   -0.8106   -0.7433 H   0  0  0  0  0  0  0  0  0  0  0  0
    2.1250   -2.8529   -2.3748 H   0  0  0  0  0  0  0  0  0  0  0  0
    0.4375   -2.1198   -2.3671 H   0  0  0  0  0  0  0  0  0  0  0  0
  1  2  1  0  0  0  0
  1 10  1  0  0  0  0
  2 13  1  1  0  0  0
  2  3  1  0  0  0  0
  3  4  1  0  0  0  0
  3 14  1  1  0  0  0
  5  6  1  6  0  0  0
  5  3  1  0  0  0  0
  5  4  1  0  0  0  0
  6 15  1  0  0  0  0
  7  9  1  6  0  0  0
  7  5  1  0  0  0  0
  7  2  1  0  0  0  0
  8  7  1  0  0  0  0
  9  8  1  0  0  0  0
 11  1  1  0  0  0  0
 12  1  1  0  0  0  0
 16  6  1  0  0  0  0
 17  6  1  0  0  0  0
 18  8  1  0  0  0  0
 19  8  1  0  0  0  0
M TOR 0 0 1 2 3
M TOR 1 0 1 2 4
M TOR 2 0 1 2 13
M TOR 3 0 1 6 4
M TOR 4 0 1 6 7
M TOR 5 0 1 6 8
M TOR 6 1 2 3 4
M TOR 7 1 2 4 5
M TOR 8 1 2 4 6
M TOR 9 1 6 4 3
M TOR 10 1 6 4 5
M TOR 11 1 6 7 8
M TOR 12 1 6 7 17
M TOR 13 1 6 7 18
M TOR 14 2 1 0 9
M TOR 15 2 1 0 10
M TOR 16 2 1 0 11
M TOR 17 2 1 6 7
M TOR 18 2 1 6 8
M TOR 19 2 3 4 5
M TOR 20 2 3 4 6
M TOR 21 2 4 5 14
M TOR 22 2 4 5 15
M TOR 23 2 4 5 16
M TOR 24 2 4 6 7
M TOR 25 2 4 6 8
M TOR 26 3 2 1 6
M TOR 27 3 2 1 12
M TOR 28 3 4 2 13
M TOR 29 3 4 5 14
M TOR 30 3 4 5 15
M TOR 31 3 4 5 16
M TOR 32 3 4 6 7
M TOR 33 3 4 6 8
M TOR 34 4 2 1 12
M TOR 35 4 6 1 12
M TOR 36 4 6 7 8
M TOR 37 4 6 7 17
M TOR 38 4 6 7 18
M TOR 39 5 4 2 13
M TOR 40 5 4 6 7
M TOR 41 5 4 6 8
M TOR 42 6 1 0 9
M TOR 43 6 1 0 10
M TOR 44 6 1 0 11
M TOR 45 6 1 2 13
M TOR 46 6 4 2 13
M TOR 47 6 4 5 14
M TOR 48 6 4 5 15
M TOR 49 6 4 5 16
M TOR 50 6 8 7 17
M TOR 51 6 8 7 18
M TOR 52 7 6 1 12
M TOR 53 8 6 1 12
M  END
$$$$
