
     RDKit          3D

 19 20  0  0  0  0  0  0  0  0999 V2000
    0.9221    0.0999    0.8641 O   0  0  0  0  0  0  0  0  0  0  0  0
   -0.1263    0.1015    0.2701 C   0  0  0  0  0  0  0  0  0  0  0  0
   -0.8043    1.3138   -0.3731 C   0  0  0  0  0  0  0  0  0  0  0  0
   -2.2182    0.8260   -0.7269 C   0  0  0  0  0  0  0  0  0  0  0  0
   -2.0307   -0.6834   -1.0008 C   0  0  0  0  0  0  0  0  0  0  0  0
   -1.0036   -1.1319    0.0407 C   0  0  0  0  0  0  0  0  0  0  0  0
   -0.2773   -2.4842   -0.1081 C   0  0  0  0  0  0  0  0  0  0  0  0
   -0.8987   -3.0233    1.0751 O   0  0  0  0  0  0  0  0  0  0  0  0
   -1.5418   -1.7726    1.3586 C   0  0  0  0  0  0  0  0  0  0  0  0
   -0.7568    2.1872    0.2813 H   0  0  0  0  0  0  0  0  0  0  0  0
   -0.2330    1.5617   -1.2779 H   0  0  0  0  0  0  0  0  0  0  0  0
   -2.8890    0.9678    0.1284 H   0  0  0  0  0  0  0  0  0  0  0  0
   -2.6584    1.3561   -1.5744 H   0  0  0  0  0  0  0  0  0  0  0  0
   -2.9654   -1.2484   -0.9507 H   0  0  0  0  0  0  0  0  0  0  0  0
   -1.6171   -0.8292   -2.0074 H   0  0  0  0  0  0  0  0  0  0  0  0
   -0.5332   -3.0579   -1.0074 H   0  0  0  0  0  0  0  0  0  0  0  0
    0.8119   -2.4155   -0.0024 H   0  0  0  0  0  0  0  0  0  0  0  0
   -2.6342   -1.8653    1.4143 H   0  0  0  0  0  0  0  0  0  0  0  0
   -1.1628   -1.3168    2.2816 H   0  0  0  0  0  0  0  0  0  0  0  0
  1  2  2  0
  2  3  1  0
  3  4  1  0
  4  5  1  0
  5  6  1  0
  6  7  1  0
  7  8  1  0
  8  9  1  0
  6  2  1  0
  9  6  1  0
  3 10  1  0
  3 11  1  0
  4 12  1  0
  4 13  1  0
  5 14  1  0
  5 15  1  0
  7 16  1  0
  7 17  1  0
  9 18  1  0
  9 19  1  0
M  END
$$$$
