
     RDKit          3D

 19 21  0  0  0  0  0  0  0  0999 V2000
   -1.9235   -1.5993    0.9600 C   0  0  0  0  0  0  0  0  0  0  0  0
   -1.3055   -0.3097    1.4623 C   0  0  0  0  0  0  0  0  0  0  0  0
    0.1935   -0.0453    1.4916 C   0  0  0  0  0  0  0  0  0  0  0  0
    0.9854   -0.5843    0.3104 C   0  0  0  0  0  0  0  0  0  0  0  0
    1.7526    0.3674   -0.4434 O   0  0  0  0  0  0  0  0  0  0  0  0
    0.6187   -0.2365   -1.0672 C   0  0  0  0  0  0  0  0  0  0  0  0
   -0.6098    0.6222   -1.3025 C   0  0  0  0  0  0  0  0  0  0  0  0
   -1.7812   -0.1468   -1.0853 O   0  0  0  0  0  0  0  0  0  0  0  0
   -2.2035   -0.3042    0.2416 C   0  0  0  0  0  0  0  0  0  0  0  0
   -1.2690   -2.2833    0.4299 H   0  0  0  0  0  0  0  0  0  0  0  0
   -2.7080   -2.0787    1.5355 H   0  0  0  0  0  0  0  0  0  0  0  0
   -1.7973    0.1123    2.3360 H   0  0  0  0  0  0  0  0  0  0  0  0
    0.3711    1.0346    1.5428 H   0  0  0  0  0  0  0  0  0  0  0  0
    0.6010   -0.4661    2.4186 H   0  0  0  0  0  0  0  0  0  0  0  0
    1.5046   -1.5287    0.4694 H   0  0  0  0  0  0  0  0  0  0  0  0
    0.8591   -0.9411   -1.8639 H   0  0  0  0  0  0  0  0  0  0  0  0
   -0.5739    1.5074   -0.6563 H   0  0  0  0  0  0  0  0  0  0  0  0
   -0.6570    0.9608   -2.3422 H   0  0  0  0  0  0  0  0  0  0  0  0
   -3.1865    0.1392    0.3898 H   0  0  0  0  0  0  0  0  0  0  0  0
  1  2  1  0
  2  3  1  0
  3  4  1  0
  4  5  1  0
  5  6  1  0
  6  7  1  0
  7  8  1  0
  8  9  1  0
  9  1  1  0
  9  2  1  0
  6  4  1  0
  1 10  1  0
  1 11  1  0
  2 12  1  0
  3 13  1  0
  3 14  1  0
  4 15  1  0
  6 16  1  0
  7 17  1  0
  7 18  1  0
  9 19  1  0
M  END
$$$$
