gdb 5249	3.2094442	1.4771533	1.3007228	1.5778	74.2	-0.24226	0.0658	0.30806	1025.4748	0.15837	-422.517609	-422.510144	-422.5092	-422.549412	29.846
 OpenBabel02181911423D

 19 21  0  0  1  0  0  0  0  0999 V2000
    1.3235    0.4597    0.0169 O   0  0  0  0  0  0  0  0  0  0  0  0
    0.0961   -0.2074   -0.2463 C   0  0  0  0  0  0  0  0  0  0  0  0
   -0.9302    0.6858   -0.8898 C   0  0  1  0  0  0  0  0  0  0  0  0
   -0.6799    1.5333   -2.1470 C   0  0  0  0  0  0  0  0  0  0  0  0
   -2.0005    2.2030   -1.7172 C   0  0  1  0  0  0  0  0  0  0  0  0
   -2.9579    1.1540   -1.9464 O   0  0  0  0  0  0  0  0  0  0  0  0
   -2.4629    0.2422   -0.9559 C   0  0  2  0  0  0  0  0  0  0  0  0
   -2.7296    1.0140    0.3562 C   0  0  0  0  0  0  0  0  0  0  0  0
   -1.6318    1.9302   -0.1984 C   0  0  1  0  0  0  0  0  0  0  0  0
    1.1358    1.1792    0.6284 H   0  0  0  0  0  0  0  0  0  0  0  0
    0.3497   -1.0292   -0.9266 H   0  0  0  0  0  0  0  0  0  0  0  0
   -0.3115   -0.6655    0.6698 H   0  0  0  0  0  0  0  0  0  0  0  0
    0.1957    2.1710   -2.0028 H   0  0  0  0  0  0  0  0  0  0  0  0
   -0.6634    1.0610   -3.1327 H   0  0  0  0  0  0  0  0  0  0  0  0
   -2.3624    3.1552   -2.1007 H   0  0  0  0  0  0  0  0  0  0  0  0
   -2.8000   -0.7749   -1.1511 H   0  0  0  0  0  0  0  0  0  0  0  0
   -3.7421    1.3984    0.4990 H   0  0  0  0  0  0  0  0  0  0  0  0
   -2.3903    0.4787    1.2470 H   0  0  0  0  0  0  0  0  0  0  0  0
   -1.1075    2.7027    0.3632 H   0  0  0  0  0  0  0  0  0  0  0  0
  1 10  1  0  0  0  0
  2  1  1  0  0  0  0
  2 12  1  0  0  0  0
  3  2  1  1  0  0  0
  3  9  1  0  0  0  0
  4 13  1  0  0  0  0
  4  5  1  0  0  0  0
  4  3  1  0  0  0  0
  5 15  1  6  0  0  0
  5  9  1  0  0  0  0
  6  5  1  0  0  0  0
  6  7  1  0  0  0  0
  7 16  1  6  0  0  0
  7  3  1  0  0  0  0
  7  8  1  0  0  0  0
  8 17  1  0  0  0  0
  8 18  1  0  0  0  0
  9  8  1  0  0  0  0
  9 19  1  1  0  0  0
 11  2  1  0  0  0  0
 14  4  1  0  0  0  0
M TOR 0 0 1 2 3
M TOR 1 0 1 2 6
M TOR 2 0 1 2 8
M TOR 3 1 2 3 4
M TOR 4 1 2 3 12
M TOR 5 1 2 3 13
M TOR 6 1 2 6 5
M TOR 7 1 2 6 7
M TOR 8 1 2 6 15
M TOR 9 1 2 8 4
M TOR 10 1 2 8 7
M TOR 11 1 2 8 18
M TOR 12 2 1 0 9
M TOR 13 2 3 4 5
M TOR 14 2 3 4 8
M TOR 15 2 3 4 14
M TOR 16 2 6 5 4
M TOR 17 2 6 7 8
M TOR 18 2 6 7 16
M TOR 19 2 6 7 17
M TOR 20 2 8 4 5
M TOR 21 2 8 4 14
M TOR 22 2 8 7 16
M TOR 23 2 8 7 17
M TOR 24 3 2 1 10
M TOR 25 3 2 1 11
M TOR 26 3 2 6 5
M TOR 27 3 2 6 7
M TOR 28 3 2 6 15
M TOR 29 3 2 8 7
M TOR 30 3 2 8 18
M TOR 31 3 4 5 6
M TOR 32 3 4 8 7
M TOR 33 3 4 8 18
M TOR 34 4 3 2 6
M TOR 35 4 5 6 7
M TOR 36 4 5 6 15
M TOR 37 4 8 2 6
M TOR 38 4 8 7 6
M TOR 39 4 8 7 16
M TOR 40 4 8 7 17
M TOR 41 5 4 3 12
M TOR 42 5 4 3 13
M TOR 43 5 4 8 7
M TOR 44 5 4 8 18
M TOR 45 5 6 2 8
M TOR 46 5 6 7 8
M TOR 47 5 6 7 16
M TOR 48 5 6 7 17
M TOR 49 6 2 1 10
M TOR 50 6 2 1 11
M TOR 51 6 2 3 12
M TOR 52 6 2 3 13
M TOR 53 6 2 8 18
M TOR 54 6 5 4 8
M TOR 55 6 5 4 14
M TOR 56 6 7 8 18
M TOR 57 7 8 4 14
M TOR 58 8 2 1 10
M TOR 59 8 2 1 11
M TOR 60 8 2 3 12
M TOR 61 8 2 3 13
M TOR 62 8 2 6 15
M TOR 63 8 4 3 12
M TOR 64 8 4 3 13
M TOR 65 8 7 6 15
M  END
$$$$
