gdb 1455	2.6848745	1.6624873	1.5358109	1.5556	74.69	-0.23552	-0.00124	0.23428000000000002	971.329	0.157439	-422.553627	-422.545785	-422.54484	-422.585204	31.785
 OpenBabel02181911403D

 19 20  0  0  1  0  0  0  0  0999 V2000
   -0.2050   -0.0680    0.0654 C   0  0  0  0  0  0  0  0  0  0  0  0
    1.3031   -0.0947   -0.0276 C   0  0  1  0  0  0  0  0  0  0  0  0
    1.7743   -0.8546    1.0683 O   0  0  0  0  0  0  0  0  0  0  0  0
    2.0614   -0.4959   -1.3283 C   0  0  1  0  0  0  0  0  0  0  0  0
    1.4754    0.0932   -2.6184 C   0  0  0  0  0  0  0  0  0  0  0  0
    1.2535    1.5787   -2.4273 C   0  0  0  0  0  0  0  0  0  0  0  0
    1.5664    2.1258   -1.2524 C   0  0  0  0  0  0  0  0  0  0  0  0
    2.1619    1.2003   -0.2202 C   0  0  2  0  0  0  0  0  0  0  0  0
    3.1666    0.3555   -0.8842 O   0  0  0  0  0  0  0  0  0  0  0  0
   -0.5064    0.3270    1.0404 H   0  0  0  0  0  0  0  0  0  0  0  0
   -0.6504    0.5491   -0.7154 H   0  0  0  0  0  0  0  0  0  0  0  0
   -0.5991   -1.0860   -0.0148 H   0  0  0  0  0  0  0  0  0  0  0  0
    2.7370   -0.8698    0.9938 H   0  0  0  0  0  0  0  0  0  0  0  0
    2.3581   -1.5449   -1.4222 H   0  0  0  0  0  0  0  0  0  0  0  0
    2.1578   -0.0917   -3.4587 H   0  0  0  0  0  0  0  0  0  0  0  0
    0.5338   -0.4134   -2.8708 H   0  0  0  0  0  0  0  0  0  0  0  0
    0.8514    2.1595   -3.2520 H   0  0  0  0  0  0  0  0  0  0  0  0
    1.4158    3.1758   -1.0266 H   0  0  0  0  0  0  0  0  0  0  0  0
    2.5572    1.6894    0.6728 H   0  0  0  0  0  0  0  0  0  0  0  0
  1 10  1  0  0  0  0
  2  1  1  0  0  0  0
  2  3  1  1  0  0  0
  4 14  1  6  0  0  0
  4  9  1  0  0  0  0
  4  2  1  0  0  0  0
  5  6  1  0  0  0  0
  5  4  1  0  0  0  0
  6  7  2  0  0  0  0
  7 18  1  0  0  0  0
  7  8  1  0  0  0  0
  8  2  1  0  0  0  0
  8 19  1  1  0  0  0
  9  8  1  0  0  0  0
 11  1  1  0  0  0  0
 12  1  1  0  0  0  0
 13  3  1  0  0  0  0
 15  5  1  0  0  0  0
 16  5  1  0  0  0  0
 17  6  1  0  0  0  0
M TOR 0 0 1 2 12
M TOR 1 0 1 3 4
M TOR 2 0 1 3 8
M TOR 3 0 1 3 13
M TOR 4 0 1 7 6
M TOR 5 0 1 7 8
M TOR 6 0 1 7 18
M TOR 7 1 3 4 5
M TOR 8 1 3 4 14
M TOR 9 1 3 4 15
M TOR 10 1 3 8 7
M TOR 11 1 7 6 5
M TOR 12 1 7 6 17
M TOR 13 2 1 0 9
M TOR 14 2 1 0 10
M TOR 15 2 1 0 11
M TOR 16 2 1 3 4
M TOR 17 2 1 3 8
M TOR 18 2 1 3 13
M TOR 19 2 1 7 6
M TOR 20 2 1 7 8
M TOR 21 2 1 7 18
M TOR 22 3 1 0 9
M TOR 23 3 1 0 10
M TOR 24 3 1 0 11
M TOR 25 3 1 2 12
M TOR 26 3 1 7 6
M TOR 27 3 1 7 18
M TOR 28 3 4 5 6
M TOR 29 3 4 5 16
M TOR 30 3 8 7 6
M TOR 31 3 8 7 18
M TOR 32 4 3 1 7
M TOR 33 4 3 8 7
M TOR 34 4 5 6 7
M TOR 35 4 5 6 17
M TOR 36 5 4 3 8
M TOR 37 5 4 3 13
M TOR 38 5 6 7 8
M TOR 39 5 6 7 18
M TOR 40 6 5 4 14
M TOR 41 6 5 4 15
M TOR 42 7 1 0 9
M TOR 43 7 1 0 10
M TOR 44 7 1 0 11
M TOR 45 7 1 2 12
M TOR 46 7 1 3 13
M TOR 47 7 6 5 16
M TOR 48 7 8 3 13
M TOR 49 8 3 4 14
M TOR 50 8 3 4 15
M TOR 51 8 7 6 17
M  END
$$$$
