
     RDKit          3D

 19 19  0  0  0  0  0  0  0  0999 V2000
    2.6479    1.0311    3.0731 C   0  0  0  0  0  0  0  0  0  0  0  0
    2.0330    1.0214    1.6736 C   0  0  0  0  0  0  0  0  0  0  0  0
    3.0258    1.1561    0.6602 O   0  0  0  0  0  0  0  0  0  0  0  0
    1.3130   -0.2804    1.3646 C   0  0  0  0  0  0  0  0  0  0  0  0
    0.4913   -0.3456    0.0641 C   0  0  0  0  0  0  0  0  0  0  0  0
   -0.7198   -0.6675    0.7878 O   0  0  0  0  0  0  0  0  0  0  0  0
   -0.0553   -0.5193    2.0659 C   0  0  0  0  0  0  0  0  0  0  0  0
   -0.1789   -1.6783    2.9331 C   0  0  0  0  0  0  0  0  0  0  0  0
   -0.2660   -2.6331    3.6584 C   0  0  0  0  0  0  0  0  0  0  0  0
    3.3871    0.2297    3.1680 H   0  0  0  0  0  0  0  0  0  0  0  0
    3.1479    1.9859    3.2715 H   0  0  0  0  0  0  0  0  0  0  0  0
    1.8834    0.8917    3.8445 H   0  0  0  0  0  0  0  0  0  0  0  0
    1.3035    1.8467    1.5952 H   0  0  0  0  0  0  0  0  0  0  0  0
    3.5180    1.9661    0.8280 H   0  0  0  0  0  0  0  0  0  0  0  0
    2.0003   -1.1203    1.4836 H   0  0  0  0  0  0  0  0  0  0  0  0
    0.4083    0.6077   -0.4718 H   0  0  0  0  0  0  0  0  0  0  0  0
    0.7634   -1.1338   -0.6450 H   0  0  0  0  0  0  0  0  0  0  0  0
   -0.4289    0.3725    2.5912 H   0  0  0  0  0  0  0  0  0  0  0  0
   -0.3501   -3.4781    4.2964 H   0  0  0  0  0  0  0  0  0  0  0  0
  1  2  1  0
  2  3  1  0
  2  4  1  0
  4  5  1  0
  5  6  1  0
  6  7  1  0
  7  8  1  0
  8  9  3  0
  7  4  1  0
  1 10  1  0
  1 11  1  0
  1 12  1  0
  2 13  1  0
  3 14  1  0
  4 15  1  0
  5 16  1  0
  5 17  1  0
  7 18  1  0
  9 19  1  0
M  END
$$$$
