gdb 3966	2.4850617	1.7856222	1.2670795	1.501	77.43	-0.23358	0.01524	0.24882	1028.4924	0.158058	-422.539602	-422.531597	-422.530653	-422.571777	31.634
 OpenBabel02181911413D

 19 20  0  0  1  0  0  0  0  0999 V2000
    0.3233    1.3857   -0.0384 O   0  0  0  0  0  0  0  0  0  0  0  0
    0.1369   -0.0055   -0.0846 C   0  0  2  0  0  0  0  0  0  0  0  0
    0.1238   -0.6254   -1.5419 C   0  0  0  0  0  0  0  0  0  0  0  0
   -1.3803   -0.6407   -1.4068 C   0  0  2  0  0  3  0  0  0  0  0  0
   -2.5235   -0.2305   -1.9456 C   0  0  0  0  0  3  0  0  0  0  0  0
   -3.5137    0.0922   -0.8316 C   0  0  0  0  0  0  0  0  0  0  0  0
   -2.6143    0.3170    0.4204 C   0  0  2  0  0  0  0  0  0  0  0  0
   -2.3578    1.7236    0.4874 O   0  0  0  0  0  0  0  0  0  0  0  0
   -1.3538   -0.5261    0.0932 C   0  0  2  0  0  0  0  0  0  0  0  0
   -0.4752    1.7938   -0.4027 H   0  0  0  0  0  0  0  0  0  0  0  0
    0.8719   -0.4429    0.5961 H   0  0  0  0  0  0  0  0  0  0  0  0
    0.5657   -0.0114   -2.3305 H   0  0  0  0  0  0  0  0  0  0  0  0
    0.5808   -1.6206   -1.5580 H   0  0  0  0  0  0  0  0  0  0  0  0
   -2.7347   -0.0538   -2.9937 H   0  0  0  0  0  0  0  0  0  0  0  0
   -4.0955    0.9981   -1.0315 H   0  0  0  0  0  0  0  0  0  0  0  0
   -4.2324   -0.7193   -0.6558 H   0  0  0  0  0  0  0  0  0  0  0  0
   -3.1122   -0.0065    1.3438 H   0  0  0  0  0  0  0  0  0  0  0  0
   -1.7544    1.8743    1.2241 H   0  0  0  0  0  0  0  0  0  0  0  0
   -1.3596   -1.4826    0.6293 H   0  0  0  0  0  0  0  0  0  0  0  0
  2  1  1  0  0  0  0
  2  9  1  0  0  0  0
  2 11  1  1  0  0  0
  3  4  1  0  0  0  0
  3  2  1  0  0  0  0
  4  5  1  6  0  0  0
  4  9  1  0  0  0  0
  5  6  1  0  0  0  0
  6 16  1  0  0  0  0
  6  7  1  0  0  0  0
  7  8  1  0  0  0  0
  7 17  1  1  0  0  0
  8 18  1  0  0  0  0
  9  7  1  0  0  0  0
  9 19  1  1  0  0  0
 10  1  1  0  0  0  0
 12  3  1  0  0  0  0
 13  3  1  0  0  0  0
 14  5  1  0  0  0  0
 15  6  1  0  0  0  0
M TOR 0 0 1 2 3
M TOR 1 0 1 2 11
M TOR 2 0 1 2 12
M TOR 3 0 1 8 3
M TOR 4 0 1 8 6
M TOR 5 0 1 8 18
M TOR 6 1 2 3 4
M TOR 7 1 2 3 8
M TOR 8 1 8 3 4
M TOR 9 1 8 6 5
M TOR 10 1 8 6 7
M TOR 11 1 8 6 16
M TOR 12 2 1 0 9
M TOR 13 2 1 8 6
M TOR 14 2 1 8 18
M TOR 15 2 3 4 5
M TOR 16 2 3 4 13
M TOR 17 2 3 8 6
M TOR 18 2 3 8 18
M TOR 19 3 2 1 10
M TOR 20 3 4 5 6
M TOR 21 3 4 5 14
M TOR 22 3 4 5 15
M TOR 23 3 8 1 10
M TOR 24 3 8 6 5
M TOR 25 3 8 6 7
M TOR 26 3 8 6 16
M TOR 27 4 3 2 11
M TOR 28 4 3 2 12
M TOR 29 4 3 8 6
M TOR 30 4 3 8 18
M TOR 31 4 5 6 7
M TOR 32 4 5 6 8
M TOR 33 4 5 6 16
M TOR 34 5 4 3 8
M TOR 35 5 6 7 17
M TOR 36 5 6 8 18
M TOR 37 6 5 4 13
M TOR 38 6 8 1 10
M TOR 39 7 6 5 14
M TOR 40 7 6 5 15
M TOR 41 7 6 8 18
M TOR 42 8 1 0 9
M TOR 43 8 1 2 11
M TOR 44 8 1 2 12
M TOR 45 8 3 2 11
M TOR 46 8 3 2 12
M TOR 47 8 3 4 13
M TOR 48 8 6 5 14
M TOR 49 8 6 5 15
M TOR 50 8 6 7 17
M  END
$$$$
