gdb 1592	2.2555012	1.5737202	1.1724933	1.3222	76.75	-0.24622	0.04201	0.28823	1116.9123	0.155305	-422.534593	-422.525244	-422.5243	-422.568509	35.11
 OpenBabel02181911403D

 19 19  0  0  1  0  0  0  0  0999 V2000
   -0.9790    2.4124    0.3106 C   0  0  0  0  0  0  0  0  0  0  0  0
   -1.2789    1.4503    1.4461 C   0  0  2  0  0  0  0  0  0  0  0  0
   -2.5797    1.7536    1.9185 O   0  0  0  0  0  0  0  0  0  0  0  0
   -0.2929    1.4756    2.6212 C   0  0  0  0  0  0  0  0  0  0  0  0
   -0.6327    0.3091    3.3603 O   0  0  0  0  0  0  0  0  0  0  0  0
   -0.8176   -0.7456    2.4136 C   0  0  0  0  0  0  0  0  0  0  0  0
   -1.1541   -0.0652    1.0463 C   0  0  1  0  0  0  0  0  0  0  0  0
   -2.3157   -0.6130    0.3716 C   0  0  0  0  0  0  0  0  0  0  0  0
   -3.2669   -1.0870   -0.1901 C   0  0  0  0  0  0  0  0  0  0  0  0
    0.0297    2.2575   -0.0829 H   0  0  0  0  0  0  0  0  0  0  0  0
   -1.6975    2.2678   -0.5008 H   0  0  0  0  0  0  0  0  0  0  0  0
   -1.0667    3.4446    0.6609 H   0  0  0  0  0  0  0  0  0  0  0  0
   -2.7094    1.2548    2.7345 H   0  0  0  0  0  0  0  0  0  0  0  0
    0.7533    1.4438    2.2750 H   0  0  0  0  0  0  0  0  0  0  0  0
   -0.4347    2.3448    3.2672 H   0  0  0  0  0  0  0  0  0  0  0  0
    0.0965   -1.3483    2.3299 H   0  0  0  0  0  0  0  0  0  0  0  0
   -1.6258   -1.3869    2.7720 H   0  0  0  0  0  0  0  0  0  0  0  0
   -0.2853   -0.1602    0.3845 H   0  0  0  0  0  0  0  0  0  0  0  0
   -4.1144   -1.4926   -0.6848 H   0  0  0  0  0  0  0  0  0  0  0  0
  1 12  1  0  0  0  0
  1  2  1  0  0  0  0
  2  3  1  1  0  0  0
  2  4  1  0  0  0  0
  3 13  1  0  0  0  0
  4 15  1  0  0  0  0
  4  5  1  0  0  0  0
  6 17  1  0  0  0  0
  6  5  1  0  0  0  0
  7 18  1  6  0  0  0
  7  2  1  0  0  0  0
  7  6  1  0  0  0  0
  8  7  1  0  0  0  0
  9  8  3  0  0  0  0
 10  1  1  0  0  0  0
 11  1  1  0  0  0  0
 14  4  1  0  0  0  0
 16  6  1  0  0  0  0
 19  9  1  0  0  0  0
M TOR 0 0 1 2 12
M TOR 1 0 1 3 4
M TOR 2 0 1 3 13
M TOR 3 0 1 3 14
M TOR 4 0 1 6 5
M TOR 5 0 1 6 7
M TOR 6 0 1 6 17
M TOR 7 1 3 4 5
M TOR 8 1 6 5 4
M TOR 9 1 6 5 15
M TOR 10 1 6 5 16
M TOR 11 1 6 7 8
M TOR 12 2 1 0 9
M TOR 13 2 1 0 10
M TOR 14 2 1 0 11
M TOR 15 2 1 3 4
M TOR 16 2 1 3 13
M TOR 17 2 1 3 14
M TOR 18 2 1 6 5
M TOR 19 2 1 6 7
M TOR 20 2 1 6 17
M TOR 21 3 1 0 9
M TOR 22 3 1 0 10
M TOR 23 3 1 0 11
M TOR 24 3 1 2 12
M TOR 25 3 1 6 5
M TOR 26 3 1 6 7
M TOR 27 3 1 6 17
M TOR 28 3 4 5 6
M TOR 29 3 4 5 15
M TOR 30 3 4 5 16
M TOR 31 4 3 1 6
M TOR 32 4 5 6 7
M TOR 33 4 5 6 17
M TOR 34 5 4 3 13
M TOR 35 5 4 3 14
M TOR 36 5 6 7 8
M TOR 37 6 1 0 9
M TOR 38 6 1 0 10
M TOR 39 6 1 0 11
M TOR 40 6 1 2 12
M TOR 41 6 1 3 13
M TOR 42 6 1 3 14
M TOR 43 6 7 8 18
M TOR 44 7 6 5 15
M TOR 45 7 6 5 16
M TOR 46 8 7 6 17
M  END
$$$$
