
     RDKit          3D

 19 21  0  0  0  0  0  0  0  0999 V2000
   -2.3859    1.5214    1.2001 O   0  0  0  0  0  0  0  0  0  0  0  0
   -1.4186    2.1669    0.4509 C   0  0  0  0  0  0  0  0  0  0  0  0
   -1.1621    3.6782    0.4741 C   0  0  0  0  0  0  0  0  0  0  0  0
   -0.9419    3.6321   -1.0759 C   0  0  0  0  0  0  0  0  0  0  0  0
   -1.2394    2.1261   -1.0688 C   0  0  0  0  0  0  0  0  0  0  0  0
   -0.2692    1.4272   -0.1616 C   0  0  0  0  0  0  0  0  0  0  0  0
    1.2449    1.5298    0.0198 C   0  0  0  0  0  0  0  0  0  0  0  0
    1.3352    0.0957    0.1803 O   0  0  0  0  0  0  0  0  0  0  0  0
   -0.0807   -0.0814   -0.0457 C   0  0  0  0  0  0  0  0  0  0  0  0
   -1.9962    1.2533    2.0406 H   0  0  0  0  0  0  0  0  0  0  0  0
   -2.0637    4.2336    0.7408 H   0  0  0  0  0  0  0  0  0  0  0  0
   -0.3310    4.0310    1.0941 H   0  0  0  0  0  0  0  0  0  0  0  0
   -1.6873    4.2152   -1.6194 H   0  0  0  0  0  0  0  0  0  0  0  0
    0.0525    3.9167   -1.4334 H   0  0  0  0  0  0  0  0  0  0  0  0
   -1.7995    1.5811   -1.8202 H   0  0  0  0  0  0  0  0  0  0  0  0
    1.8082    1.8793   -0.8559 H   0  0  0  0  0  0  0  0  0  0  0  0
    1.5997    2.0660    0.9101 H   0  0  0  0  0  0  0  0  0  0  0  0
   -0.2831   -0.6643   -0.9540 H   0  0  0  0  0  0  0  0  0  0  0  0
   -0.5808   -0.5661    0.8035 H   0  0  0  0  0  0  0  0  0  0  0  0
  1  2  1  0
  2  3  1  0
  3  4  1  0
  4  5  1  0
  5  6  1  0
  6  7  1  0
  7  8  1  0
  8  9  1  0
  5  2  1  0
  9  6  1  0
  6  2  1  0
  1 10  1  0
  3 11  1  0
  3 12  1  0
  4 13  1  0
  4 14  1  0
  5 15  1  0
  7 16  1  0
  7 17  1  0
  9 18  1  0
  9 19  1  0
M  END
$$$$
