gdb 558	3.9305829	1.2489073	1.127	1.5454	74.75	-0.23585	0.07298	0.30883	1117.6632	0.158275	-422.507198	-422.499485	-422.498541	-422.54004	29.213
 OpenBabel02181911403D

 19 21  0  0  1  0  0  0  0  0999 V2000
   -1.5790    2.1068    1.7929 C   0  0  0  0  0  0  0  0  0  0  0  0
   -1.9402    0.7307    1.4849 O   0  0  0  0  0  0  0  0  0  0  0  0
   -0.5620    0.3577    1.4961 C   0  0  2  0  0  0  0  0  0  0  0  0
   -0.0904    1.7813    1.7169 C   0  0  1  0  0  0  0  0  0  0  0  0
    0.2107    1.0664    0.4201 C   0  0  2  0  0  0  0  0  0  0  0  0
   -0.3654    1.3588   -0.9545 C   0  0  0  0  0  0  0  0  0  0  0  0
    0.4303    0.3636   -1.8044 C   0  0  0  0  0  0  0  0  0  0  0  0
    1.7344    0.3207   -1.2283 O   0  0  0  0  0  0  0  0  0  0  0  0
    1.6489    0.6124    0.1630 C   0  0  0  0  0  0  0  0  0  0  0  0
   -1.9873    2.8189    1.0665 H   0  0  0  0  0  0  0  0  0  0  0  0
   -1.9167    2.3694    2.8012 H   0  0  0  0  0  0  0  0  0  0  0  0
   -0.2915   -0.5926    1.9445 H   0  0  0  0  0  0  0  0  0  0  0  0
    0.6809    2.1799    2.3639 H   0  0  0  0  0  0  0  0  0  0  0  0
   -1.4440    1.1936   -0.9930 H   0  0  0  0  0  0  0  0  0  0  0  0
   -0.1518    2.3880   -1.2650 H   0  0  0  0  0  0  0  0  0  0  0  0
   -0.0391   -0.6323   -1.7736 H   0  0  0  0  0  0  0  0  0  0  0  0
    0.5382    0.6598   -2.8517 H   0  0  0  0  0  0  0  0  0  0  0  0
    1.9142   -0.2734    0.7602 H   0  0  0  0  0  0  0  0  0  0  0  0
    2.3789    1.4002    0.3933 H   0  0  0  0  0  0  0  0  0  0  0  0
  1 11  1  0  0  0  0
  2  3  1  0  0  0  0
  2  1  1  0  0  0  0
  3  4  1  0  0  0  0
  3 12  1  1  0  0  0
  4  1  1  0  0  0  0
  4 13  1  1  0  0  0
  5  6  1  6  0  0  0
  5  3  1  0  0  0  0
  5  4  1  0  0  0  0
  7 16  1  0  0  0  0
  7  8  1  0  0  0  0
  7  6  1  0  0  0  0
  8  9  1  0  0  0  0
  9 19  1  0  0  0  0
  9  5  1  0  0  0  0
  9 18  1  0  0  0  0
 10  1  1  0  0  0  0
 14  6  1  0  0  0  0
 15  6  1  0  0  0  0
 17  7  1  0  0  0  0
M TOR 0 0 1 2 3
M TOR 1 0 1 2 4
M TOR 2 0 1 2 11
M TOR 3 0 3 2 4
M TOR 4 0 3 2 11
M TOR 5 0 3 4 5
M TOR 6 0 3 4 8
M TOR 7 1 0 3 4
M TOR 8 1 0 3 12
M TOR 9 1 2 3 4
M TOR 10 1 2 3 12
M TOR 11 1 2 4 5
M TOR 12 1 2 4 8
M TOR 13 2 1 0 9
M TOR 14 2 1 0 10
M TOR 15 2 3 0 9
M TOR 16 2 3 0 10
M TOR 17 2 3 4 5
M TOR 18 2 3 4 8
M TOR 19 2 4 3 12
M TOR 20 2 4 5 6
M TOR 21 2 4 5 13
M TOR 22 2 4 5 14
M TOR 23 2 4 8 7
M TOR 24 2 4 8 17
M TOR 25 2 4 8 18
M TOR 26 3 4 2 11
M TOR 27 3 4 5 6
M TOR 28 3 4 5 13
M TOR 29 3 4 5 14
M TOR 30 3 4 8 7
M TOR 31 3 4 8 17
M TOR 32 3 4 8 18
M TOR 33 4 3 0 9
M TOR 34 4 3 0 10
M TOR 35 4 5 6 7
M TOR 36 4 5 6 15
M TOR 37 4 5 6 16
M TOR 38 4 8 7 6
M TOR 39 5 4 2 11
M TOR 40 5 4 3 12
M TOR 41 5 4 8 7
M TOR 42 5 4 8 17
M TOR 43 5 4 8 18
M TOR 44 5 6 7 8
M TOR 45 6 5 4 8
M TOR 46 6 7 8 17
M TOR 47 6 7 8 18
M TOR 48 7 6 5 13
M TOR 49 7 6 5 14
M TOR 50 8 4 2 11
M TOR 51 8 4 3 12
M TOR 52 8 4 5 13
M TOR 53 8 4 5 14
M TOR 54 8 7 6 15
M TOR 55 8 7 6 16
M  END
$$$$
