
     RDKit          3D

 19 20  0  0  0  0  0  0  0  0999 V2000
    3.0208   -0.5418    0.4989 C   0  0  0  0  0  0  0  0  0  0  0  0
    2.4794    0.1176   -0.7753 C   0  0  0  0  0  0  0  0  0  0  0  0
    1.1634   -0.4725   -1.2618 C   0  0  0  0  0  0  0  0  0  0  0  0
   -0.0575   -0.1311   -0.4223 C   0  0  0  0  0  0  0  0  0  0  0  0
    0.8726   -0.6703   -2.7103 C   0  0  0  0  0  0  0  0  0  0  0  0
    2.0870   -0.9374   -3.4597 O   0  0  0  0  0  0  0  0  0  0  0  0
    2.2597   -2.1343   -2.7619 C   0  0  0  0  0  0  0  0  0  0  0  0
    3.0832   -2.9662   -2.9595 O   0  0  0  0  0  0  0  0  0  0  0  0
    1.0786   -1.9046   -1.8617 C   0  0  0  0  0  0  0  0  0  0  0  0
    3.2062   -1.6084    0.3378 H   0  0  0  0  0  0  0  0  0  0  0  0
    3.9661   -0.0795    0.7973 H   0  0  0  0  0  0  0  0  0  0  0  0
    2.3267   -0.4437    1.3397 H   0  0  0  0  0  0  0  0  0  0  0  0
    2.3221    1.1897   -0.6003 H   0  0  0  0  0  0  0  0  0  0  0  0
    3.2249    0.0453   -1.5715 H   0  0  0  0  0  0  0  0  0  0  0  0
    0.0402   -0.5212    0.5951 H   0  0  0  0  0  0  0  0  0  0  0  0
   -0.1793    0.9552   -0.3562 H   0  0  0  0  0  0  0  0  0  0  0  0
   -0.9741   -0.5488   -0.8507 H   0  0  0  0  0  0  0  0  0  0  0  0
    0.0156   -0.3287   -3.2749 H   0  0  0  0  0  0  0  0  0  0  0  0
    0.3942   -2.6547   -1.4928 H   0  0  0  0  0  0  0  0  0  0  0  0
  1  2  1  0
  2  3  1  0
  3  4  1  0
  3  5  1  0
  5  6  1  0
  6  7  1  0
  7  8  2  0
  7  9  1  0
  9  3  1  0
  9  5  1  0
  1 10  1  0
  1 11  1  0
  1 12  1  0
  2 13  1  0
  2 14  1  0
  4 15  1  0
  4 16  1  0
  4 17  1  0
  5 18  1  0
  9 19  1  0
M  END
$$$$
