gdb 4767	2.0147369	1.2143601	0.8005455	1.2799	79.23	-0.25319	-0.03762	0.21557000000000004	1428.2636	0.152198	-422.53309	-422.522138	-422.521194	-422.570291	37.954
 OpenBabel02181911413D

 19 18  0  0  1  0  0  0  0  0999 V2000
    1.0818   -0.9152    0.9442 C   0  0  0  0  0  0  0  0  0  0  0  0
    0.8229    0.0707   -0.1976 C   0  0  0  0  0  0  0  0  0  0  0  0
    1.6266    1.3676   -0.0484 C   0  0  2  0  0  0  0  0  0  0  0  0
    1.3158    2.0493    1.1515 O   0  0  0  0  0  0  0  0  0  0  0  0
    1.4427    2.3071   -1.2906 C   0  0  2  0  0  0  0  0  0  0  0  0
    2.0763    1.6699   -2.5322 C   0  0  0  0  0  0  0  0  0  0  0  0
    1.4567    1.1121   -3.3972 O   0  0  0  0  0  0  0  0  0  0  0  0
    2.0465    3.6161   -1.0812 C   0  0  0  0  0  0  0  0  0  0  0  0
    2.5867    4.6839   -0.9691 C   0  0  0  0  0  0  0  0  0  0  0  0
    0.4516   -1.8036    0.8451 H   0  0  0  0  0  0  0  0  0  0  0  0
    2.1263   -1.2455    0.9496 H   0  0  0  0  0  0  0  0  0  0  0  0
    0.8758   -0.4501    1.9116 H   0  0  0  0  0  0  0  0  0  0  0  0
    1.0521   -0.3943   -1.1625 H   0  0  0  0  0  0  0  0  0  0  0  0
   -0.2452    0.3304   -0.2361 H   0  0  0  0  0  0  0  0  0  0  0  0
    2.6946    1.1327    0.0403 H   0  0  0  0  0  0  0  0  0  0  0  0
    0.3814    2.2867    1.1292 H   0  0  0  0  0  0  0  0  0  0  0  0
    0.3685    2.4035   -1.4940 H   0  0  0  0  0  0  0  0  0  0  0  0
    3.1843    1.7569   -2.5634 H   0  0  0  0  0  0  0  0  0  0  0  0
    3.0468    5.6331   -0.8456 H   0  0  0  0  0  0  0  0  0  0  0  0
  1 11  1  0  0  0  0
  1 12  1  0  0  0  0
  2  3  1  0  0  0  0
  2  1  1  0  0  0  0
  3 15  1  1  0  0  0
  3  4  1  0  0  0  0
  5 17  1  6  0  0  0
  5  8  1  0  0  0  0
  5  3  1  0  0  0  0
  6  5  1  0  0  0  0
  7  6  2  0  0  0  0
  8  9  3  0  0  0  0
  9 19  1  0  0  0  0
 10  1  1  0  0  0  0
 13  2  1  0  0  0  0
 14  2  1  0  0  0  0
 16  4  1  0  0  0  0
 18  6  1  0  0  0  0
M TOR 0 0 1 2 3
M TOR 1 0 1 2 4
M TOR 2 0 1 2 14
M TOR 3 1 2 3 15
M TOR 4 1 2 4 5
M TOR 5 1 2 4 7
M TOR 6 1 2 4 16
M TOR 7 2 1 0 9
M TOR 8 2 1 0 10
M TOR 9 2 1 0 11
M TOR 10 2 4 5 6
M TOR 11 2 4 5 17
M TOR 12 2 4 7 8
M TOR 13 3 2 1 12
M TOR 14 3 2 1 13
M TOR 15 3 2 4 5
M TOR 16 3 2 4 7
M TOR 17 3 2 4 16
M TOR 18 4 2 1 12
M TOR 19 4 2 1 13
M TOR 20 4 2 3 15
M TOR 21 4 7 8 18
M TOR 22 5 4 2 14
M TOR 23 5 4 7 8
M TOR 24 6 5 4 7
M TOR 25 6 5 4 16
M TOR 26 7 4 2 14
M TOR 27 7 4 5 17
M TOR 28 8 7 4 16
M  END
$$$$
