gdb 4415	3.2296158	1.310695	1.1246593	0.7561	75.31	-0.23329	0.06829	0.30158	1130.1032	0.156952	-422.493805	-422.485672	-422.484728	-422.526542	31.246
 OpenBabel02181911413D

 19 21  0  0  1  0  0  0  0  0999 V2000
    0.2167    0.0591    0.0408 O   0  0  0  0  0  0  0  0  0  0  0  0
   -0.8838    0.9357    0.0406 C   0  0  2  0  0  0  0  0  0  0  0  0
   -1.0054    2.0240    1.1464 C   0  0  0  0  0  0  0  0  0  0  0  0
   -2.5291    1.7161    1.2566 C   0  0  0  0  0  0  0  0  0  0  0  0
   -2.2722    0.4269    0.4695 C   0  0  1  0  0  0  0  0  0  0  0  0
   -3.1733   -0.4865   -0.3200 C   0  0  2  0  0  0  0  0  0  0  0  0
   -4.4640   -0.7117    0.4644 C   0  0  0  0  0  0  0  0  0  0  0  0
   -3.7234   -1.0849    1.6617 O   0  0  0  0  0  0  0  0  0  0  0  0
   -2.4938   -0.9750    0.9416 C   0  0  2  0  0  0  0  0  0  0  0  0
    0.3339   -0.2646    0.9405 H   0  0  0  0  0  0  0  0  0  0  0  0
   -0.9068    1.3718   -0.9638 H   0  0  0  0  0  0  0  0  0  0  0  0
   -0.4640    1.7224    2.0491 H   0  0  0  0  0  0  0  0  0  0  0  0
   -0.7054    3.0402    0.8828 H   0  0  0  0  0  0  0  0  0  0  0  0
   -2.9416    1.5908    2.2594 H   0  0  0  0  0  0  0  0  0  0  0  0
   -3.1449    2.4352    0.7080 H   0  0  0  0  0  0  0  0  0  0  0  0
   -2.9994   -0.7412   -1.3576 H   0  0  0  0  0  0  0  0  0  0  0  0
   -5.1187    0.1518    0.6319 H   0  0  0  0  0  0  0  0  0  0  0  0
   -5.0548   -1.5612    0.1047 H   0  0  0  0  0  0  0  0  0  0  0  0
   -1.7273   -1.7211    1.1192 H   0  0  0  0  0  0  0  0  0  0  0  0
  1 10  1  0  0  0  0
  2 11  1  6  0  0  0
  2  1  1  0  0  0  0
  2  5  1  0  0  0  0
  2  3  1  0  0  0  0
  3  4  1  0  0  0  0
  3 12  1  0  0  0  0
  4 14  1  0  0  0  0
  5  9  1  0  0  0  0
  5  4  1  1  0  0  0
  6 16  1  6  0  0  0
  6  7  1  0  0  0  0
  6  5  1  0  0  0  0
  6  9  1  0  0  0  0
  7 17  1  0  0  0  0
  7  8  1  0  0  0  0
  9 19  1  1  0  0  0
  9  8  1  0  0  0  0
 13  3  1  0  0  0  0
 15  4  1  0  0  0  0
 18  7  1  0  0  0  0
M TOR 0 0 1 2 3
M TOR 1 0 1 2 11
M TOR 2 0 1 2 12
M TOR 3 0 1 4 3
M TOR 4 0 1 4 5
M TOR 5 0 1 4 8
M TOR 6 1 2 3 4
M TOR 7 1 2 3 13
M TOR 8 1 2 3 14
M TOR 9 1 4 3 13
M TOR 10 1 4 3 14
M TOR 11 1 4 5 6
M TOR 12 1 4 5 8
M TOR 13 1 4 5 15
M TOR 14 1 4 8 7
M TOR 15 1 4 8 18
M TOR 16 2 1 0 9
M TOR 17 2 1 4 5
M TOR 18 2 1 4 8
M TOR 19 2 3 4 5
M TOR 20 2 3 4 8
M TOR 21 3 2 1 10
M TOR 22 3 4 1 10
M TOR 23 3 4 5 6
M TOR 24 3 4 5 8
M TOR 25 3 4 5 15
M TOR 26 3 4 8 7
M TOR 27 3 4 8 18
M TOR 28 4 1 0 9
M TOR 29 4 1 2 11
M TOR 30 4 1 2 12
M TOR 31 4 3 2 11
M TOR 32 4 3 2 12
M TOR 33 4 5 6 7
M TOR 34 4 5 6 16
M TOR 35 4 5 6 17
M TOR 36 4 5 8 7
M TOR 37 4 5 8 18
M TOR 38 4 8 5 6
M TOR 39 4 8 5 15
M TOR 40 4 8 7 6
M TOR 41 5 4 1 10
M TOR 42 5 4 3 13
M TOR 43 5 4 3 14
M TOR 44 5 6 7 8
M TOR 45 6 5 8 18
M TOR 46 6 7 8 18
M TOR 47 7 6 5 15
M TOR 48 7 8 5 15
M TOR 49 8 4 1 10
M TOR 50 8 4 3 13
M TOR 51 8 4 3 14
M TOR 52 8 5 6 16
M TOR 53 8 5 6 17
M TOR 54 8 7 6 16
M TOR 55 8 7 6 17
M  END
$$$$
