
     RDKit          3D

 19 20  0  0  0  0  0  0  0  0999 V2000
    0.0939    0.3492   -0.4507 C   0  0  0  0  0  0  0  0  0  0  0  0
    1.4135   -0.1043    0.1090 C   0  0  0  0  0  0  0  0  0  0  0  0
    1.7570   -0.0063    1.5570 C   0  0  0  0  0  0  0  0  0  0  0  0
    2.5735    0.8168    0.5511 C   0  0  0  0  0  0  0  0  0  0  0  0
    3.8281    0.1691   -0.0048 C   0  0  0  0  0  0  0  0  0  0  0  0
    3.3582   -1.2495   -0.3839 C   0  0  0  0  0  0  0  0  0  0  0  0
    1.9533   -1.1620   -0.6328 O   0  0  0  0  0  0  0  0  0  0  0  0
    2.4419    2.2826    0.5323 C   0  0  0  0  0  0  0  0  0  0  0  0
    3.2560    3.0401    0.0575 O   0  0  0  0  0  0  0  0  0  0  0  0
   -0.3144    1.1838    0.1238 H   0  0  0  0  0  0  0  0  0  0  0  0
    0.2028    0.6584   -1.4941 H   0  0  0  0  0  0  0  0  0  0  0  0
   -0.6257   -0.4749   -0.4132 H   0  0  0  0  0  0  0  0  0  0  0  0
    1.0739    0.5548    2.1879 H   0  0  0  0  0  0  0  0  0  0  0  0
    2.2563   -0.8276    2.0596 H   0  0  0  0  0  0  0  0  0  0  0  0
    4.1572    0.7410   -0.8765 H   0  0  0  0  0  0  0  0  0  0  0  0
    4.6561    0.1452    0.7094 H   0  0  0  0  0  0  0  0  0  0  0  0
    3.8292   -1.6407   -1.2889 H   0  0  0  0  0  0  0  0  0  0  0  0
    3.5524   -1.9600    0.4311 H   0  0  0  0  0  0  0  0  0  0  0  0
    1.5050    2.6694    0.9969 H   0  0  0  0  0  0  0  0  0  0  0  0
  1  2  1  0
  2  3  1  0
  3  4  1  0
  4  5  1  0
  5  6  1  0
  6  7  1  0
  4  8  1  0
  8  9  2  0
  4  2  1  0
  7  2  1  0
  1 10  1  0
  1 11  1  0
  1 12  1  0
  3 13  1  0
  3 14  1  0
  5 15  1  0
  5 16  1  0
  6 17  1  0
  6 18  1  0
  8 19  1  0
M  END
$$$$
