
     RDKit          3D

 19 21  0  0  0  0  0  0  0  0999 V2000
    0.3637    0.0867   -0.0023 O   0  0  0  0  0  0  0  0  0  0  0  0
   -0.8153    0.3416    0.7444 C   0  0  0  0  0  0  0  0  0  0  0  0
   -2.0841    0.1638   -0.1151 C   0  0  0  0  0  0  0  0  0  0  0  0
   -2.0797   -1.3609   -0.3901 C   0  0  0  0  0  0  0  0  0  0  0  0
   -1.9402   -1.8039    1.0632 C   0  0  0  0  0  0  0  0  0  0  0  0
   -2.6408   -0.7519    1.9239 C   0  0  0  0  0  0  0  0  0  0  0  0
   -3.1892    0.3013    0.9627 C   0  0  0  0  0  0  0  0  0  0  0  0
   -1.1395   -0.7347    1.7764 C   0  0  0  0  0  0  0  0  0  0  0  0
   -0.2830   -0.9821    2.8448 O   0  0  0  0  0  0  0  0  0  0  0  0
    1.1022    0.1227    0.6144 H   0  0  0  0  0  0  0  0  0  0  0  0
   -0.7728    1.3416    1.2017 H   0  0  0  0  0  0  0  0  0  0  0  0
   -2.1598    0.8175   -0.9829 H   0  0  0  0  0  0  0  0  0  0  0  0
   -3.0105   -1.7009   -0.8561 H   0  0  0  0  0  0  0  0  0  0  0  0
   -1.2351   -1.6652   -1.0123 H   0  0  0  0  0  0  0  0  0  0  0  0
   -1.8955   -2.8386    1.3786 H   0  0  0  0  0  0  0  0  0  0  0  0
   -3.1063   -1.0139    2.8647 H   0  0  0  0  0  0  0  0  0  0  0  0
   -4.1834    0.0541    0.5763 H   0  0  0  0  0  0  0  0  0  0  0  0
   -3.2292    1.3037    1.4016 H   0  0  0  0  0  0  0  0  0  0  0  0
    0.3357   -1.6685    2.5748 H   0  0  0  0  0  0  0  0  0  0  0  0
  1  2  1  0
  2  3  1  0
  3  4  1  0
  4  5  1  0
  5  6  1  0
  6  7  1  0
  6  8  1  0
  8  9  1  0
  8  2  1  0
  7  3  1  0
  8  5  1  0
  1 10  1  0
  2 11  1  0
  3 12  1  0
  4 13  1  0
  4 14  1  0
  5 15  1  0
  6 16  1  0
  7 17  1  0
  7 18  1  0
  9 19  1  0
M  END
$$$$
