
     RDKit          3D

 19 21  0  0  0  0  0  0  0  0999 V2000
    0.4706    0.3617    0.7077 O   0  0  0  0  0  0  0  0  0  0  0  0
   -0.8164    0.7798    0.3151 C   0  0  0  0  0  0  0  0  0  0  0  0
   -1.9406   -0.3109    0.3078 C   0  0  0  0  0  0  0  0  0  0  0  0
   -2.2339    0.0657   -1.1410 C   0  0  0  0  0  0  0  0  0  0  0  0
   -2.8481   -0.6388   -2.3406 C   0  0  0  0  0  0  0  0  0  0  0  0
   -3.3766    0.6188   -2.8374 O   0  0  0  0  0  0  0  0  0  0  0  0
   -3.0215    1.3176   -1.6215 C   0  0  0  0  0  0  0  0  0  0  0  0
   -1.7213    2.1506   -1.7491 C   0  0  0  0  0  0  0  0  0  0  0  0
   -0.9262    0.9231   -1.2311 C   0  0  0  0  0  0  0  0  0  0  0  0
    0.4570    0.1941    1.6560 H   0  0  0  0  0  0  0  0  0  0  0  0
   -1.1160    1.6965    0.8445 H   0  0  0  0  0  0  0  0  0  0  0  0
   -1.4797   -1.3018    0.3815 H   0  0  0  0  0  0  0  0  0  0  0  0
   -2.7515   -0.2337    1.0386 H   0  0  0  0  0  0  0  0  0  0  0  0
   -2.1635   -1.1158   -3.0527 H   0  0  0  0  0  0  0  0  0  0  0  0
   -3.6583   -1.3412   -2.0963 H   0  0  0  0  0  0  0  0  0  0  0  0
   -3.8959    1.7489   -1.1222 H   0  0  0  0  0  0  0  0  0  0  0  0
   -1.5163    2.4325   -2.7844 H   0  0  0  0  0  0  0  0  0  0  0  0
   -1.6623    3.0427   -1.1168 H   0  0  0  0  0  0  0  0  0  0  0  0
   -0.0307    0.5889   -1.7564 H   0  0  0  0  0  0  0  0  0  0  0  0
  1  2  1  0
  2  3  1  0
  3  4  1  0
  4  5  1  0
  5  6  1  0
  6  7  1  0
  7  8  1  0
  8  9  1  0
  9  2  1  0
  7  4  1  0
  9  4  1  0
  1 10  1  0
  2 11  1  0
  3 12  1  0
  3 13  1  0
  5 14  1  0
  5 15  1  0
  7 16  1  0
  8 17  1  0
  8 18  1  0
  9 19  1  0
M  END
$$$$
