gdb 2131	2.7142265	1.8257774	1.3799185	3.0699	74.56	-0.24935	0.06017	0.30952	975.2263	0.158343	-422.502081	-422.494757	-422.493813	-422.533195	30.199
 OpenBabel02181911403D

 19 21  0  0  1  0  0  0  0  0999 V2000
    0.5538   -0.0615    0.0628 O   0  0  0  0  0  0  0  0  0  0  0  0
   -0.2659    0.5645    0.9958 C   0  0  2  0  0  0  0  0  0  0  0  0
   -1.5175   -0.0592    1.6556 C   0  0  0  0  0  0  0  0  0  0  0  0
   -1.8176    1.4513    1.9791 C   0  0  2  0  0  0  0  0  0  0  0  0
   -3.0902    1.9404    1.2893 C   0  0  0  0  0  0  0  0  0  0  0  0
   -2.4325    1.7458   -0.0022 O   0  0  0  0  0  0  0  0  0  0  0  0
   -1.1237    1.7860    0.6396 C   0  0  2  0  0  0  0  0  0  0  0  0
   -0.7962    1.7945    3.0539 C   0  0  0  0  0  0  0  0  0  0  0  0
    0.4341    1.1748    2.2728 C   0  0  0  0  0  0  0  0  0  0  0  0
    1.0654   -0.7449    0.5099 H   0  0  0  0  0  0  0  0  0  0  0  0
   -2.2180   -0.4799    0.9368 H   0  0  0  0  0  0  0  0  0  0  0  0
   -1.3642   -0.7304    2.5049 H   0  0  0  0  0  0  0  0  0  0  0  0
   -3.9970    1.3345    1.3836 H   0  0  0  0  0  0  0  0  0  0  0  0
   -3.3265    3.0006    1.4523 H   0  0  0  0  0  0  0  0  0  0  0  0
   -0.6175    2.7362    0.4381 H   0  0  0  0  0  0  0  0  0  0  0  0
   -0.6812    2.8695    3.2162 H   0  0  0  0  0  0  0  0  0  0  0  0
   -0.9678    1.3147    4.0216 H   0  0  0  0  0  0  0  0  0  0  0  0
    1.1797    1.9273    2.0003 H   0  0  0  0  0  0  0  0  0  0  0  0
    0.9396    0.3862    2.8396 H   0  0  0  0  0  0  0  0  0  0  0  0
  1 10  1  0  0  0  0
  2  1  1  6  0  0  0
  2  3  1  0  0  0  0
  2  9  1  0  0  0  0
  3  4  1  0  0  0  0
  3 12  1  0  0  0  0
  4  5  1  1  0  0  0
  4  8  1  0  0  0  0
  5 13  1  0  0  0  0
  5 14  1  0  0  0  0
  6  7  1  0  0  0  0
  6  5  1  0  0  0  0
  7 15  1  6  0  0  0
  7  2  1  0  0  0  0
  7  4  1  0  0  0  0
  8 16  1  0  0  0  0
  8 17  1  0  0  0  0
  9 19  1  0  0  0  0
  9  8  1  0  0  0  0
 11  3  1  0  0  0  0
 18  9  1  0  0  0  0
M TOR 0 0 1 2 3
M TOR 1 0 1 2 10
M TOR 2 0 1 2 11
M TOR 3 0 1 6 3
M TOR 4 0 1 6 5
M TOR 5 0 1 6 14
M TOR 6 0 1 8 7
M TOR 7 0 1 8 17
M TOR 8 0 1 8 18
M TOR 9 1 2 3 4
M TOR 10 1 2 3 6
M TOR 11 1 2 3 7
M TOR 12 1 6 3 4
M TOR 13 1 6 3 7
M TOR 14 1 6 5 4
M TOR 15 1 8 7 3
M TOR 16 1 8 7 15
M TOR 17 1 8 7 16
M TOR 18 2 1 0 9
M TOR 19 2 1 6 5
M TOR 20 2 1 6 14
M TOR 21 2 1 8 7
M TOR 22 2 1 8 17
M TOR 23 2 1 8 18
M TOR 24 2 3 4 5
M TOR 25 2 3 4 12
M TOR 26 2 3 4 13
M TOR 27 2 3 6 5
M TOR 28 2 3 6 14
M TOR 29 2 3 7 8
M TOR 30 2 3 7 15
M TOR 31 2 3 7 16
M TOR 32 3 2 1 8
M TOR 33 3 4 5 6
M TOR 34 3 6 1 8
M TOR 35 3 7 8 17
M TOR 36 3 7 8 18
M TOR 37 4 3 2 10
M TOR 38 4 3 2 11
M TOR 39 4 3 6 14
M TOR 40 4 3 7 8
M TOR 41 4 3 7 15
M TOR 42 4 3 7 16
M TOR 43 4 5 6 14
M TOR 44 5 4 3 7
M TOR 45 5 6 1 8
M TOR 46 5 6 3 7
M TOR 47 6 1 0 9
M TOR 48 6 1 2 10
M TOR 49 6 1 2 11
M TOR 50 6 1 8 7
M TOR 51 6 1 8 17
M TOR 52 6 1 8 18
M TOR 53 6 3 2 10
M TOR 54 6 3 2 11
M TOR 55 6 3 4 12
M TOR 56 6 3 4 13
M TOR 57 6 3 7 8
M TOR 58 6 3 7 15
M TOR 59 6 3 7 16
M TOR 60 6 5 4 12
M TOR 61 6 5 4 13
M TOR 62 7 3 2 10
M TOR 63 7 3 2 11
M TOR 64 7 3 4 12
M TOR 65 7 3 4 13
M TOR 66 7 3 6 14
M TOR 67 8 1 0 9
M TOR 68 8 1 2 10
M TOR 69 8 1 2 11
M TOR 70 8 1 6 14
M  END
$$$$
