
     RDKit          3D

 19 20  0  0  0  0  0  0  0  0999 V2000
    0.4850   -3.1891   -0.9647 O   0  0  0  0  0  0  0  0  0  0  0  0
    0.9212   -1.9723   -1.5619 C   0  0  0  0  0  0  0  0  0  0  0  0
    2.4327   -1.7630   -1.2883 C   0  0  0  0  0  0  0  0  0  0  0  0
    2.9623   -0.3857   -1.6224 C   0  0  0  0  0  0  0  0  0  0  0  0
    2.6389    0.7076   -0.9299 C   0  0  0  0  0  0  0  0  0  0  0  0
    1.7109    0.6571    0.2357 C   0  0  0  0  0  0  0  0  0  0  0  0
    0.4553    1.3456    0.1225 O   0  0  0  0  0  0  0  0  0  0  0  0
    0.4422   -0.0879    0.1407 C   0  0  0  0  0  0  0  0  0  0  0  0
    0.0488   -0.7635   -1.1601 C   0  0  0  0  0  0  0  0  0  0  0  0
    0.6699   -3.1423   -0.0204 H   0  0  0  0  0  0  0  0  0  0  0  0
    0.7715   -2.1371   -2.6345 H   0  0  0  0  0  0  0  0  0  0  0  0
    2.5971   -1.9573   -0.2200 H   0  0  0  0  0  0  0  0  0  0  0  0
    2.9886   -2.5356   -1.8255 H   0  0  0  0  0  0  0  0  0  0  0  0
    3.6414   -0.2996   -2.4670 H   0  0  0  0  0  0  0  0  0  0  0  0
    3.0554    1.6777   -1.1898 H   0  0  0  0  0  0  0  0  0  0  0  0
    2.1708    0.7771    1.2196 H   0  0  0  0  0  0  0  0  0  0  0  0
    0.0306   -0.5066    1.0604 H   0  0  0  0  0  0  0  0  0  0  0  0
   -0.9918   -1.1009   -1.1204 H   0  0  0  0  0  0  0  0  0  0  0  0
    0.1138   -0.0042   -1.9431 H   0  0  0  0  0  0  0  0  0  0  0  0
  1  2  1  0
  2  3  1  0
  3  4  1  0
  4  5  2  0
  5  6  1  0
  6  7  1  0
  7  8  1  0
  8  9  1  0
  9  2  1  0
  8  6  1  0
  1 10  1  0
  2 11  1  0
  3 12  1  0
  3 13  1  0
  4 14  1  0
  5 15  1  0
  6 16  1  0
  8 17  1  0
  9 18  1  0
  9 19  1  0
M  END
$$$$
