gdb 2684	2.0297781	1.2231248	0.8583778	1.9818	77.75	-0.24998	-0.02161	0.22837000000000002	1368.0081	0.154801	-422.528628	-422.519211	-422.518267	-422.563631	33.438
 OpenBabel02181911413D

 19 20  0  0  1  0  0  0  0  0999 V2000
    3.3962    1.2029   -1.6039 C   0  0  0  0  0  0  0  0  0  0  0  0
    3.4659   -0.0333   -0.7366 C   0  0  1  0  0  0  0  0  0  0  0  0
    2.8361   -0.0193    0.6573 C   0  0  2  0  0  0  0  0  0  0  0  0
    3.5745   -0.6476    1.7738 C   0  0  0  0  0  0  0  0  0  0  0  0
    3.5555   -0.2509    2.9135 O   0  0  0  0  0  0  0  0  0  0  0  0
    2.2616   -0.8727   -0.4795 C   0  0  2  0  0  0  0  0  0  0  0  0
    2.2658   -2.3696   -0.4268 C   0  0  2  0  0  0  0  0  0  0  0  0
    3.3695   -3.2163   -0.9026 C   0  0  0  0  0  0  0  0  0  0  0  0
    2.1951   -3.0405   -1.6901 O   0  0  0  0  0  0  0  0  0  0  0  0
    4.1736    1.9229   -1.3292 H   0  0  0  0  0  0  0  0  0  0  0  0
    3.5308    0.9444   -2.6594 H   0  0  0  0  0  0  0  0  0  0  0  0
    2.4268    1.7010   -1.5030 H   0  0  0  0  0  0  0  0  0  0  0  0
    4.4109   -0.5689   -0.7855 H   0  0  0  0  0  0  0  0  0  0  0  0
    2.2693    0.8606    0.9437 H   0  0  0  0  0  0  0  0  0  0  0  0
    4.1847   -1.5353    1.4867 H   0  0  0  0  0  0  0  0  0  0  0  0
    1.3248   -0.4776   -0.8674 H   0  0  0  0  0  0  0  0  0  0  0  0
    1.6011   -2.7989    0.3253 H   0  0  0  0  0  0  0  0  0  0  0  0
    4.2718   -2.7616   -1.3067 H   0  0  0  0  0  0  0  0  0  0  0  0
    3.5056   -4.2074   -0.4714 H   0  0  0  0  0  0  0  0  0  0  0  0
  1 12  1  0  0  0  0
  1 10  1  0  0  0  0
  1  2  1  0  0  0  0
  2 13  1  6  0  0  0
  2  6  1  0  0  0  0
  2  3  1  0  0  0  0
  3 14  1  1  0  0  0
  3  4  1  0  0  0  0
  4  5  2  0  0  0  0
  6 16  1  6  0  0  0
  6  7  1  0  0  0  0
  6  3  1  0  0  0  0
  7 17  1  1  0  0  0
  8 19  1  0  0  0  0
  8  7  1  0  0  0  0
  9  8  1  0  0  0  0
  9  7  1  0  0  0  0
 11  1  1  0  0  0  0
 15  4  1  0  0  0  0
 18  8  1  0  0  0  0
M TOR 0 0 1 2 3
M TOR 1 0 1 2 5
M TOR 2 0 1 2 13
M TOR 3 0 1 5 6
M TOR 4 0 1 5 15
M TOR 5 1 2 3 4
M TOR 6 1 2 3 14
M TOR 7 1 2 5 6
M TOR 8 1 2 5 15
M TOR 9 1 5 2 3
M TOR 10 1 5 2 13
M TOR 11 1 5 6 7
M TOR 12 1 5 6 8
M TOR 13 1 5 6 16
M TOR 14 2 1 0 9
M TOR 15 2 1 0 10
M TOR 16 2 1 0 11
M TOR 17 2 5 1 12
M TOR 18 2 5 6 7
M TOR 19 2 5 6 8
M TOR 20 2 5 6 16
M TOR 21 3 2 1 12
M TOR 22 3 2 5 6
M TOR 23 3 2 5 15
M TOR 24 4 3 2 5
M TOR 25 4 3 2 13
M TOR 26 5 1 0 9
M TOR 27 5 1 0 10
M TOR 28 5 1 0 11
M TOR 29 5 2 3 14
M TOR 30 5 6 7 8
M TOR 31 5 6 7 17
M TOR 32 5 6 7 18
M TOR 33 6 5 1 12
M TOR 34 6 5 2 13
M TOR 35 6 8 7 17
M TOR 36 6 8 7 18
M TOR 37 7 6 5 15
M TOR 38 7 8 6 16
M TOR 39 8 6 5 15
M  END
$$$$
