
     RDKit          3D

 19 19  0  0  0  0  0  0  0  0999 V2000
    0.7878    2.7303   -1.5630 C   0  0  0  0  0  0  0  0  0  0  0  0
    1.1317    1.4092   -0.8784 C   0  0  0  0  0  0  0  0  0  0  0  0
    1.9149    0.6649   -1.8172 O   0  0  0  0  0  0  0  0  0  0  0  0
   -0.0795    0.6206   -0.4604 C   0  0  0  0  0  0  0  0  0  0  0  0
   -0.3808    0.2511    0.7896 C   0  0  0  0  0  0  0  0  0  0  0  0
   -1.6422   -0.5607    0.8820 C   0  0  0  0  0  0  0  0  0  0  0  0
   -2.0870   -0.6841   -0.5868 C   0  0  0  0  0  0  0  0  0  0  0  0
   -3.0465   -1.2897   -0.9837 O   0  0  0  0  0  0  0  0  0  0  0  0
   -1.0922    0.1023   -1.4545 C   0  0  0  0  0  0  0  0  0  0  0  0
    0.2118    3.3729   -0.8916 H   0  0  0  0  0  0  0  0  0  0  0  0
    1.7077    3.2486   -1.8460 H   0  0  0  0  0  0  0  0  0  0  0  0
    0.2042    2.5556   -2.4713 H   0  0  0  0  0  0  0  0  0  0  0  0
    1.7274    1.6257    0.0228 H   0  0  0  0  0  0  0  0  0  0  0  0
    2.1621   -0.1652   -1.3961 H   0  0  0  0  0  0  0  0  0  0  0  0
    0.2164    0.5058    1.6592 H   0  0  0  0  0  0  0  0  0  0  0  0
   -1.5008   -1.5577    1.3188 H   0  0  0  0  0  0  0  0  0  0  0  0
   -2.4353   -0.0824    1.4720 H   0  0  0  0  0  0  0  0  0  0  0  0
   -0.6514   -0.5424   -2.2237 H   0  0  0  0  0  0  0  0  0  0  0  0
   -1.6242    0.8954   -1.9955 H   0  0  0  0  0  0  0  0  0  0  0  0
  1  2  1  0
  2  3  1  0
  2  4  1  0
  4  5  2  0
  5  6  1  0
  6  7  1  0
  7  8  2  0
  7  9  1  0
  9  4  1  0
  1 10  1  0
  1 11  1  0
  1 12  1  0
  2 13  1  0
  3 14  1  0
  5 15  1  0
  6 16  1  0
  6 17  1  0
  9 18  1  0
  9 19  1  0
M  END
$$$$
