gdb 4881	3.0319595	1.1493022	0.9958622	2.8142	77.86	-0.25226	0.02357	0.27582999999999996	1262.2715	0.15346	-422.502926	-422.492873	-422.491929	-422.538006	36.287
 OpenBabel02181911413D

 19 19  0  0  1  0  0  0  0  0999 V2000
    1.4187    0.4675    1.2264 C   0  0  0  0  0  0  0  0  0  0  0  0
    1.5568    0.6663   -0.2870 C   0  0  0  0  0  0  0  0  0  0  0  0
    2.0160   -0.5852   -1.0383 C   0  0  1  0  0  0  0  0  0  0  0  0
    3.2828   -1.0313   -0.6313 O   0  0  0  0  0  0  0  0  0  0  0  0
    0.9207   -1.6670   -1.2312 C   0  0  0  0  0  0  0  0  0  0  0  0
    0.7239   -1.2719   -2.6045 O   0  0  0  0  0  0  0  0  0  0  0  0
    1.9044   -0.4283   -2.5906 C   0  0  2  0  0  0  0  0  0  0  0  0
    2.9989   -0.9457   -3.3929 C   0  0  0  0  0  0  0  0  0  0  0  0
    3.8924   -1.3590   -4.0818 C   0  0  0  0  0  0  0  0  0  0  0  0
    0.7222   -0.3432    1.4668 H   0  0  0  0  0  0  0  0  0  0  0  0
    2.3808    0.2400    1.7004 H   0  0  0  0  0  0  0  0  0  0  0  0
    1.0428    1.3771    1.7030 H   0  0  0  0  0  0  0  0  0  0  0  0
    0.5939    0.9830   -0.7044 H   0  0  0  0  0  0  0  0  0  0  0  0
    2.2743    1.4700   -0.4930 H   0  0  0  0  0  0  0  0  0  0  0  0
    3.2890   -1.0992    0.3289 H   0  0  0  0  0  0  0  0  0  0  0  0
    1.3153   -2.6871   -1.1487 H   0  0  0  0  0  0  0  0  0  0  0  0
   -0.0002   -1.5727   -0.6444 H   0  0  0  0  0  0  0  0  0  0  0  0
    1.6538    0.5892   -2.9169 H   0  0  0  0  0  0  0  0  0  0  0  0
    4.6862   -1.7299   -4.6819 H   0  0  0  0  0  0  0  0  0  0  0  0
  1 10  1  0  0  0  0
  1 11  1  0  0  0  0
  1 12  1  0  0  0  0
  2  1  1  0  0  0  0
  3  4  1  1  0  0  0
  3  2  1  0  0  0  0
  4 15  1  0  0  0  0
  5 16  1  0  0  0  0
  5  3  1  0  0  0  0
  5 17  1  0  0  0  0
  6  7  1  0  0  0  0
  6  5  1  0  0  0  0
  7 18  1  6  0  0  0
  7  3  1  0  0  0  0
  8  7  1  0  0  0  0
  9  8  3  0  0  0  0
 13  2  1  0  0  0  0
 14  2  1  0  0  0  0
 19  9  1  0  0  0  0
M TOR 0 0 1 2 3
M TOR 1 0 1 2 4
M TOR 2 0 1 2 6
M TOR 3 1 2 3 14
M TOR 4 1 2 4 5
M TOR 5 1 2 4 15
M TOR 6 1 2 4 16
M TOR 7 1 2 6 5
M TOR 8 1 2 6 7
M TOR 9 1 2 6 17
M TOR 10 2 1 0 9
M TOR 11 2 1 0 10
M TOR 12 2 1 0 11
M TOR 13 2 4 5 6
M TOR 14 2 6 7 8
M TOR 15 3 2 1 12
M TOR 16 3 2 1 13
M TOR 17 3 2 4 5
M TOR 18 3 2 4 15
M TOR 19 3 2 4 16
M TOR 20 3 2 6 5
M TOR 21 3 2 6 7
M TOR 22 3 2 6 17
M TOR 23 4 2 1 12
M TOR 24 4 2 1 13
M TOR 25 4 2 3 14
M TOR 26 4 2 6 7
M TOR 27 4 2 6 17
M TOR 28 4 5 6 7
M TOR 29 4 5 6 17
M TOR 30 5 6 7 8
M TOR 31 6 2 1 12
M TOR 32 6 2 1 13
M TOR 33 6 2 3 14
M TOR 34 6 2 4 15
M TOR 35 6 2 4 16
M TOR 36 6 5 4 15
M TOR 37 6 5 4 16
M TOR 38 6 7 8 18
M TOR 39 8 7 6 17
M  END
$$$$
