gdb 4707	2.5540556	1.0527569	0.8409855	1.4337	78.33	-0.25884	0.00487	0.26371	1444.8289	0.153388	-422.556255	-422.545433	-422.544489	-422.593371	36.989
 OpenBabel02181911413D

 19 18  0  0  1  0  0  0  0  0999 V2000
    2.7140   -2.7032   -0.3709 C   0  0  0  0  0  0  0  0  0  0  0  0
    3.0234   -1.2587   -0.7634 C   0  0  0  0  0  0  0  0  0  0  0  0
    2.4689   -0.2276    0.2430 C   0  0  2  0  0  0  0  0  0  0  0  0
    1.0108   -0.2697    0.3473 C   0  0  0  0  0  0  0  0  0  0  0  0
   -0.1891   -0.3071    0.4034 C   0  0  0  0  0  0  0  0  0  0  0  0
    2.9006    1.1955   -0.1411 C   0  0  0  0  0  0  0  0  0  0  0  0
    3.2892    1.5322   -1.2287 O   0  0  0  0  0  0  0  0  0  0  0  0
    2.7884    2.0222    0.9120 O   0  0  0  0  0  0  0  0  0  0  0  0
    3.1230    3.3931    0.6549 C   0  0  0  0  0  0  0  0  0  0  0  0
    3.1506   -2.9555    0.6022 H   0  0  0  0  0  0  0  0  0  0  0  0
    1.6353   -2.8727   -0.3073 H   0  0  0  0  0  0  0  0  0  0  0  0
    3.1237   -3.3985   -1.1093 H   0  0  0  0  0  0  0  0  0  0  0  0
    4.1056   -1.1066   -0.8339 H   0  0  0  0  0  0  0  0  0  0  0  0
    2.6151   -1.0289   -1.7513 H   0  0  0  0  0  0  0  0  0  0  0  0
    2.8878   -0.4257    1.2386 H   0  0  0  0  0  0  0  0  0  0  0  0
   -1.2487   -0.3389    0.4651 H   0  0  0  0  0  0  0  0  0  0  0  0
    2.9743    3.9159    1.5994 H   0  0  0  0  0  0  0  0  0  0  0  0
    4.1617    3.4808    0.3268 H   0  0  0  0  0  0  0  0  0  0  0  0
    2.4728    3.8075   -0.1195 H   0  0  0  0  0  0  0  0  0  0  0  0
  1 11  1  0  0  0  0
  1 10  1  0  0  0  0
  2  1  1  0  0  0  0
  2  3  1  0  0  0  0
  3  4  1  0  0  0  0
  3 15  1  1  0  0  0
  4  5  3  0  0  0  0
  5 16  1  0  0  0  0
  6  3  1  0  0  0  0
  6  8  1  0  0  0  0
  7  6  2  0  0  0  0
  9  8  1  0  0  0  0
  9 17  1  0  0  0  0
 12  1  1  0  0  0  0
 13  2  1  0  0  0  0
 14  2  1  0  0  0  0
 18  9  1  0  0  0  0
 19  9  1  0  0  0  0
M TOR 0 0 1 2 3
M TOR 1 0 1 2 5
M TOR 2 0 1 2 14
M TOR 3 1 2 3 4
M TOR 4 1 2 5 6
M TOR 5 1 2 5 7
M TOR 6 2 1 0 9
M TOR 7 2 1 0 10
M TOR 8 2 1 0 11
M TOR 9 2 3 4 15
M TOR 10 2 5 7 8
M TOR 11 3 2 1 12
M TOR 12 3 2 1 13
M TOR 13 3 2 5 6
M TOR 14 3 2 5 7
M TOR 15 4 3 2 5
M TOR 16 4 3 2 14
M TOR 17 5 2 1 12
M TOR 18 5 2 1 13
M TOR 19 5 7 8 16
M TOR 20 5 7 8 17
M TOR 21 5 7 8 18
M TOR 22 6 5 2 14
M TOR 23 6 5 7 8
M TOR 24 7 5 2 14
M  END
$$$$
