gdb 559	2.8067308	1.8442276	1.528566	0.9211	73.24	-0.24527	0.06593	0.3112	937.0904	0.159575	-422.528892	-422.521884	-422.52094	-422.560393	27.877
 OpenBabel02181911403D

 19 21  0  0  1  0  0  0  0  0999 V2000
    0.7299    1.2327    0.2820 C   0  0  0  0  0  0  0  0  0  0  0  0
    0.7626    1.0622    1.8283 C   0  0  0  0  0  0  0  0  0  0  0  0
    1.8002   -0.0846    1.6661 C   0  0  2  0  0  0  0  0  0  0  0  0
    1.9885    0.3188    0.1790 C   0  0  1  0  0  0  0  0  0  0  0  0
    1.9427   -0.8405   -0.6407 O   0  0  0  0  0  0  0  0  0  0  0  0
    1.4507   -1.9449    0.0881 C   0  0  2  0  0  0  0  0  0  0  0  0
   -0.0763   -2.1536    0.0739 C   0  0  0  0  0  0  0  0  0  0  0  0
   -0.2048   -1.5835    1.3974 O   0  0  0  0  0  0  0  0  0  0  0  0
    1.2330   -1.5032    1.5597 C   0  0  2  0  0  0  0  0  0  0  0  0
   -0.1482    0.7750   -0.1765 H   0  0  0  0  0  0  0  0  0  0  0  0
    0.8411    2.2476   -0.1066 H   0  0  0  0  0  0  0  0  0  0  0  0
    1.1878    1.9257    2.3444 H   0  0  0  0  0  0  0  0  0  0  0  0
   -0.1786    0.7847    2.3027 H   0  0  0  0  0  0  0  0  0  0  0  0
    2.6796   -0.0647    2.3132 H   0  0  0  0  0  0  0  0  0  0  0  0
    2.9034    0.8631   -0.0689 H   0  0  0  0  0  0  0  0  0  0  0  0
    2.0667   -2.8190   -0.1346 H   0  0  0  0  0  0  0  0  0  0  0  0
   -0.6245   -1.5896   -0.6877 H   0  0  0  0  0  0  0  0  0  0  0  0
   -0.3932   -3.2041    0.0581 H   0  0  0  0  0  0  0  0  0  0  0  0
    1.5768   -2.1743    2.3530 H   0  0  0  0  0  0  0  0  0  0  0  0
  1  2  1  0  0  0  0
  2 13  1  0  0  0  0
  2 12  1  0  0  0  0
  3  2  1  0  0  0  0
  3 14  1  1  0  0  0
  4 15  1  6  0  0  0
  4  1  1  0  0  0  0
  4  3  1  0  0  0  0
  5  6  1  0  0  0  0
  5  4  1  0  0  0  0
  6 16  1  6  0  0  0
  6  9  1  0  0  0  0
  7  6  1  0  0  0  0
  7  8  1  0  0  0  0
  8  9  1  0  0  0  0
  9  3  1  0  0  0  0
  9 19  1  1  0  0  0
 10  1  1  0  0  0  0
 11  1  1  0  0  0  0
 17  7  1  0  0  0  0
 18  7  1  0  0  0  0
M TOR 0 0 1 2 3
M TOR 1 0 1 2 8
M TOR 2 0 1 2 13
M TOR 3 0 3 2 8
M TOR 4 0 3 2 13
M TOR 5 0 3 4 5
M TOR 6 1 0 3 4
M TOR 7 1 0 3 14
M TOR 8 1 2 3 4
M TOR 9 1 2 3 14
M TOR 10 1 2 8 5
M TOR 11 1 2 8 7
M TOR 12 1 2 8 18
M TOR 13 2 1 0 9
M TOR 14 2 1 0 10
M TOR 15 2 3 0 9
M TOR 16 2 3 0 10
M TOR 17 2 3 4 5
M TOR 18 2 8 5 4
M TOR 19 2 8 5 6
M TOR 20 2 8 5 15
M TOR 21 2 8 7 6
M TOR 22 3 0 1 11
M TOR 23 3 0 1 12
M TOR 24 3 2 1 11
M TOR 25 3 2 1 12
M TOR 26 3 2 8 5
M TOR 27 3 2 8 7
M TOR 28 3 2 8 18
M TOR 29 3 4 5 6
M TOR 30 3 4 5 8
M TOR 31 3 4 5 15
M TOR 32 4 3 0 9
M TOR 33 4 3 0 10
M TOR 34 4 3 2 8
M TOR 35 4 3 2 13
M TOR 36 4 5 6 7
M TOR 37 4 5 6 16
M TOR 38 4 5 6 17
M TOR 39 4 5 8 7
M TOR 40 4 5 8 18
M TOR 41 5 4 3 14
M TOR 42 5 6 7 8
M TOR 43 5 8 2 13
M TOR 44 6 5 8 18
M TOR 45 6 7 8 18
M TOR 46 7 6 5 15
M TOR 47 7 8 2 13
M TOR 48 7 8 5 15
M TOR 49 8 2 1 11
M TOR 50 8 2 1 12
M TOR 51 8 2 3 14
M TOR 52 8 5 6 16
M TOR 53 8 5 6 17
M TOR 54 8 7 6 16
M TOR 55 8 7 6 17
M  END
$$$$
