
     RDKit          3D

 19 20  0  0  0  0  0  0  0  0999 V2000
    0.0511    1.2620    0.4540 O   0  0  0  0  0  0  0  0  0  0  0  0
    0.0421   -0.0754    0.0034 C   0  0  0  0  0  0  0  0  0  0  0  0
    0.3622   -0.2447   -1.5159 C   0  0  0  0  0  0  0  0  0  0  0  0
   -0.3066   -1.4230   -1.9670 O   0  0  0  0  0  0  0  0  0  0  0  0
   -1.3423   -1.7621   -1.0302 C   0  0  0  0  0  0  0  0  0  0  0  0
   -2.7989   -1.7368   -1.5343 C   0  0  0  0  0  0  0  0  0  0  0  0
   -3.5923   -1.1367   -0.3344 C   0  0  0  0  0  0  0  0  0  0  0  0
   -2.5435   -0.2971    0.3756 C   0  0  0  0  0  0  0  0  0  0  0  0
   -1.3249   -0.6629   -0.0052 C   0  0  0  0  0  0  0  0  0  0  0  0
    0.9665    1.5430    0.5444 H   0  0  0  0  0  0  0  0  0  0  0  0
    0.7343   -0.6981    0.5939 H   0  0  0  0  0  0  0  0  0  0  0  0
   -0.0101    0.6523   -2.0324 H   0  0  0  0  0  0  0  0  0  0  0  0
    1.4317   -0.3551   -1.7264 H   0  0  0  0  0  0  0  0  0  0  0  0
   -1.0916   -2.7491   -0.6107 H   0  0  0  0  0  0  0  0  0  0  0  0
   -2.8512   -1.0563   -2.3902 H   0  0  0  0  0  0  0  0  0  0  0  0
   -3.1691   -2.7143   -1.8538 H   0  0  0  0  0  0  0  0  0  0  0  0
   -4.4542   -0.5414   -0.6549 H   0  0  0  0  0  0  0  0  0  0  0  0
   -3.9909   -1.9270    0.3171 H   0  0  0  0  0  0  0  0  0  0  0  0
   -2.7800    0.5124    1.0555 H   0  0  0  0  0  0  0  0  0  0  0  0
  1  2  1  0
  2  3  1  0
  3  4  1  0
  4  5  1  0
  5  6  1  0
  6  7  1  0
  7  8  1  0
  8  9  2  0
  9  2  1  0
  9  5  1  0
  1 10  1  0
  2 11  1  0
  3 12  1  0
  3 13  1  0
  5 14  1  0
  6 15  1  0
  6 16  1  0
  7 17  1  0
  7 18  1  0
  8 19  1  0
M  END
$$$$
