gdb 2006	2.9122736	1.6651669	1.3259283	2.2624	74.24	-0.24256	0.07389	0.31645	1002.8125	0.158545	-422.537422	-422.529839	-422.528894	-422.569126	30.272
 OpenBabel02181911403D

 19 21  0  0  1  0  0  0  0  0999 V2000
    0.1289    0.0920    1.0794 O   0  0  0  0  0  0  0  0  0  0  0  0
   -0.6215    1.2310    0.8402 C   0  0  1  0  0  0  0  0  0  0  0  0
   -2.0536    1.1910    0.3965 C   0  0  0  0  0  0  0  0  0  0  0  0
   -1.7045    1.8221    1.7298 C   0  0  2  0  0  0  0  0  0  0  0  0
   -1.1528    3.2325    1.4905 C   0  0  1  0  0  0  0  0  0  0  0  0
   -0.5271    3.8269    2.6064 O   0  0  0  0  0  0  0  0  0  0  0  0
    0.7447    3.2084    2.7863 C   0  0  0  0  0  0  0  0  0  0  0  0
    1.2611    2.9179    1.3685 C   0  0  0  0  0  0  0  0  0  0  0  0
   -0.0184    2.6211    0.5784 C   0  0  1  0  0  0  0  0  0  0  0  0
    0.2812   -0.3548    0.2392 H   0  0  0  0  0  0  0  0  0  0  0  0
   -2.4087    1.8002   -0.4332 H   0  0  0  0  0  0  0  0  0  0  0  0
   -2.5233    0.2155    0.4775 H   0  0  0  0  0  0  0  0  0  0  0  0
   -2.1184    1.4591    2.6626 H   0  0  0  0  0  0  0  0  0  0  0  0
   -1.8474    3.9627    1.0655 H   0  0  0  0  0  0  0  0  0  0  0  0
    1.3723    3.9020    3.3517 H   0  0  0  0  0  0  0  0  0  0  0  0
    0.6483    2.2780    3.3640 H   0  0  0  0  0  0  0  0  0  0  0  0
    1.7567    3.8007    0.9545 H   0  0  0  0  0  0  0  0  0  0  0  0
    1.9641    2.0813    1.3466 H   0  0  0  0  0  0  0  0  0  0  0  0
    0.0393    2.9341   -0.4683 H   0  0  0  0  0  0  0  0  0  0  0  0
  2  1  1  1  0  0  0
  2  4  1  0  0  0  0
  3 12  1  0  0  0  0
  3  2  1  0  0  0  0
  3  4  1  0  0  0  0
  4 13  1  1  0  0  0
  5 14  1  6  0  0  0
  5  4  1  0  0  0  0
  5  6  1  0  0  0  0
  6  7  1  0  0  0  0
  7 15  1  0  0  0  0
  7 16  1  0  0  0  0
  8  7  1  0  0  0  0
  9 19  1  6  0  0  0
  9  2  1  0  0  0  0
  9  8  1  0  0  0  0
  9  5  1  0  0  0  0
 10  1  1  0  0  0  0
 11  3  1  0  0  0  0
 17  8  1  0  0  0  0
 18  8  1  0  0  0  0
M TOR 0 0 1 2 3
M TOR 1 0 1 2 10
M TOR 2 0 1 2 11
M TOR 3 0 1 3 4
M TOR 4 0 1 3 12
M TOR 5 0 1 8 4
M TOR 6 0 1 8 7
M TOR 7 0 1 8 18
M TOR 8 1 2 3 4
M TOR 9 1 2 3 12
M TOR 10 1 3 2 10
M TOR 11 1 3 2 11
M TOR 12 1 3 4 5
M TOR 13 1 3 4 8
M TOR 14 1 3 4 13
M TOR 15 1 8 4 5
M TOR 16 1 8 4 13
M TOR 17 1 8 7 6
M TOR 18 1 8 7 16
M TOR 19 1 8 7 17
M TOR 20 2 1 0 9
M TOR 21 2 1 8 4
M TOR 22 2 1 8 7
M TOR 23 2 1 8 18
M TOR 24 2 3 1 8
M TOR 25 2 3 4 5
M TOR 26 2 3 4 8
M TOR 27 2 3 4 13
M TOR 28 3 1 0 9
M TOR 29 3 1 8 7
M TOR 30 3 1 8 18
M TOR 31 3 4 5 6
M TOR 32 3 4 8 7
M TOR 33 3 4 8 18
M TOR 34 4 3 2 10
M TOR 35 4 3 2 11
M TOR 36 4 5 6 7
M TOR 37 4 5 6 14
M TOR 38 4 5 6 15
M TOR 39 4 8 7 6
M TOR 40 4 8 7 16
M TOR 41 4 8 7 17
M TOR 42 5 4 3 12
M TOR 43 5 4 8 7
M TOR 44 5 4 8 18
M TOR 45 5 6 7 8
M TOR 46 5 6 7 16
M TOR 47 5 6 7 17
M TOR 48 6 5 4 8
M TOR 49 6 5 4 13
M TOR 50 6 7 8 18
M TOR 51 7 8 4 13
M TOR 52 8 1 0 9
M TOR 53 8 1 2 10
M TOR 54 8 1 2 11
M TOR 55 8 1 3 12
M TOR 56 8 4 3 12
M TOR 57 8 7 6 14
M TOR 58 8 7 6 15
M  END
$$$$
