gdb 4469	2.7767528	1.6593701	1.2974656	2.3982	77.3	-0.22174	0.01979	0.24153	1029.7841	0.158462	-422.565032	-422.557045	-422.556101	-422.597553	30.53
 OpenBabel02181911413D

 19 20  0  0  1  0  0  0  0  0999 V2000
   -0.2632    1.4491   -0.0280 O   0  0  0  0  0  0  0  0  0  0  0  0
   -0.0056    0.0558   -0.0174 C   0  0  2  0  0  0  0  0  0  0  0  0
    0.5271   -0.4512   -1.3858 C   0  0  0  0  0  0  0  0  0  0  0  0
   -0.7242   -0.5834   -2.3239 C   0  0  0  0  0  0  0  0  0  0  0  0
   -1.8690   -0.4730   -1.3590 C   0  0  0  0  0  0  0  0  0  0  0  0
   -3.1012    0.0148   -1.3223 C   0  0  0  0  0  0  0  0  0  0  0  0
   -3.5233    0.1724    0.1198 C   0  0  0  0  0  0  0  0  0  0  0  0
   -2.3698   -0.1663    0.9007 O   0  0  0  0  0  0  0  0  0  0  0  0
   -1.3684   -0.6675    0.0455 C   0  0  2  0  0  0  0  0  0  0  0  0
    0.5797    1.9032   -0.1210 H   0  0  0  0  0  0  0  0  0  0  0  0
    0.6629   -0.2166    0.8107 H   0  0  0  0  0  0  0  0  0  0  0  0
    1.2850    0.2279   -1.7878 H   0  0  0  0  0  0  0  0  0  0  0  0
    1.0103   -1.4254   -1.2543 H   0  0  0  0  0  0  0  0  0  0  0  0
   -0.7601    0.2039   -3.0812 H   0  0  0  0  0  0  0  0  0  0  0  0
   -0.7083   -1.5396   -2.8582 H   0  0  0  0  0  0  0  0  0  0  0  0
   -3.7120    0.3473   -2.1523 H   0  0  0  0  0  0  0  0  0  0  0  0
   -3.8230    1.2066    0.3430 H   0  0  0  0  0  0  0  0  0  0  0  0
   -4.3646   -0.4804    0.4045 H   0  0  0  0  0  0  0  0  0  0  0  0
   -1.1657   -1.7274    0.2833 H   0  0  0  0  0  0  0  0  0  0  0  0
  1  2  1  0  0  0  0
  2  9  1  0  0  0  0
  2 11  1  1  0  0  0
  3 13  1  0  0  0  0
  3  2  1  0  0  0  0
  4  3  1  0  0  0  0
  4  5  1  0  0  0  0
  5  6  2  0  0  0  0
  5  9  1  0  0  0  0
  6  7  1  0  0  0  0
  7 17  1  0  0  0  0
  7 18  1  0  0  0  0
  7  8  1  0  0  0  0
  9 19  1  1  0  0  0
  9  8  1  0  0  0  0
 10  1  1  0  0  0  0
 12  3  1  0  0  0  0
 14  4  1  0  0  0  0
 15  4  1  0  0  0  0
 16  6  1  0  0  0  0
M TOR 0 0 1 2 3
M TOR 1 0 1 2 11
M TOR 2 0 1 2 12
M TOR 3 0 1 8 4
M TOR 4 0 1 8 7
M TOR 5 0 1 8 18
M TOR 6 1 2 3 4
M TOR 7 1 2 3 13
M TOR 8 1 2 3 14
M TOR 9 1 8 4 3
M TOR 10 1 8 4 5
M TOR 11 1 8 7 6
M TOR 12 2 1 0 9
M TOR 13 2 1 8 4
M TOR 14 2 1 8 7
M TOR 15 2 1 8 18
M TOR 16 2 3 4 5
M TOR 17 2 3 4 8
M TOR 18 3 2 1 8
M TOR 19 3 2 1 10
M TOR 20 3 4 5 6
M TOR 21 3 4 5 15
M TOR 22 3 4 8 7
M TOR 23 3 4 8 18
M TOR 24 4 3 2 11
M TOR 25 4 3 2 12
M TOR 26 4 5 6 7
M TOR 27 4 5 6 16
M TOR 28 4 5 6 17
M TOR 29 4 8 1 10
M TOR 30 4 8 7 6
M TOR 31 5 4 3 13
M TOR 32 5 4 3 14
M TOR 33 5 4 8 7
M TOR 34 5 4 8 18
M TOR 35 5 6 7 8
M TOR 36 6 5 4 8
M TOR 37 6 7 8 18
M TOR 38 7 6 5 15
M TOR 39 7 8 1 10
M TOR 40 8 1 0 9
M TOR 41 8 1 2 11
M TOR 42 8 1 2 12
M TOR 43 8 4 3 13
M TOR 44 8 4 3 14
M TOR 45 8 4 5 15
M TOR 46 8 7 6 16
M TOR 47 8 7 6 17
M  END
$$$$
