gdb 3071	2.6464371	1.5428089	1.3170602	2.4331	74.82	-0.2402	-0.02698	0.21322	1042.3761	0.156782	-422.547637	-422.53952	-422.538576	-422.580373	30.894
 OpenBabel02181911413D

 19 20  0  0  1  0  0  0  0  0999 V2000
   -0.1047   -0.1677   -0.0900 C   0  0  0  0  0  0  0  0  0  0  0  0
    1.4089   -0.0682   -0.0148 C   0  0  1  0  0  0  0  0  0  0  0  0
    2.2013   -0.8638    1.0583 C   0  0  2  0  0  0  0  0  0  0  0  0
    3.4495   -0.6787    0.1651 C   0  0  0  0  0  0  0  0  0  0  0  0
    2.3740   -0.8836   -0.9503 C   0  0  1  0  0  0  0  0  0  0  0  0
    1.9698   -2.3297   -0.6172 C   0  0  1  0  0  0  0  0  0  0  0  0
    1.8180   -2.2378    0.8133 O   0  0  0  0  0  0  0  0  0  0  0  0
    0.7192   -2.8736   -1.2824 C   0  0  0  0  0  0  0  0  0  0  0  0
    0.4937   -2.7658   -2.4603 O   0  0  0  0  0  0  0  0  0  0  0  0
   -0.5674    0.5247    0.6213 H   0  0  0  0  0  0  0  0  0  0  0  0
   -0.4744    0.0835   -1.0891 H   0  0  0  0  0  0  0  0  0  0  0  0
   -0.4584   -1.1712    0.1626 H   0  0  0  0  0  0  0  0  0  0  0  0
    1.7274    0.9776   -0.0158 H   0  0  0  0  0  0  0  0  0  0  0  0
    2.1645   -0.6668    2.1285 H   0  0  0  0  0  0  0  0  0  0  0  0
    3.8565    0.3330    0.1859 H   0  0  0  0  0  0  0  0  0  0  0  0
    4.2435   -1.4228    0.2589 H   0  0  0  0  0  0  0  0  0  0  0  0
    2.5323   -0.6429   -1.9992 H   0  0  0  0  0  0  0  0  0  0  0  0
    2.7791   -3.0366   -0.8604 H   0  0  0  0  0  0  0  0  0  0  0  0
    0.0389   -3.4230   -0.5935 H   0  0  0  0  0  0  0  0  0  0  0  0
  1  2  1  0  0  0  0
  1 12  1  0  0  0  0
  1 10  1  0  0  0  0
  2 13  1  1  0  0  0
  2  3  1  0  0  0  0
  3 14  1  1  0  0  0
  4 15  1  0  0  0  0
  4 16  1  0  0  0  0
  4  3  1  0  0  0  0
  5 17  1  6  0  0  0
  5  6  1  0  0  0  0
  5  2  1  0  0  0  0
  5  4  1  0  0  0  0
  6 18  1  6  0  0  0
  6  7  1  0  0  0  0
  7  3  1  0  0  0  0
  8  6  1  0  0  0  0
  8 19  1  0  0  0  0
  9  8  2  0  0  0  0
 11  1  1  0  0  0  0
M TOR 0 0 1 2 3
M TOR 1 0 1 2 6
M TOR 2 0 1 2 13
M TOR 3 0 1 4 3
M TOR 4 0 1 4 5
M TOR 5 0 1 4 16
M TOR 6 1 2 3 4
M TOR 7 1 2 3 14
M TOR 8 1 2 3 15
M TOR 9 1 2 6 5
M TOR 10 1 4 3 14
M TOR 11 1 4 3 15
M TOR 12 1 4 5 6
M TOR 13 1 4 5 7
M TOR 14 1 4 5 17
M TOR 15 2 1 0 9
M TOR 16 2 1 0 10
M TOR 17 2 1 0 11
M TOR 18 2 1 4 5
M TOR 19 2 1 4 16
M TOR 20 2 3 4 5
M TOR 21 2 3 4 16
M TOR 22 2 6 5 4
M TOR 23 2 6 5 7
M TOR 24 2 6 5 17
M TOR 25 3 2 1 12
M TOR 26 3 2 6 5
M TOR 27 3 4 1 12
M TOR 28 3 4 5 6
M TOR 29 3 4 5 7
M TOR 30 3 4 5 17
M TOR 31 4 1 0 9
M TOR 32 4 1 0 10
M TOR 33 4 1 0 11
M TOR 34 4 1 2 6
M TOR 35 4 1 2 13
M TOR 36 4 3 2 6
M TOR 37 4 3 2 13
M TOR 38 4 5 7 8
M TOR 39 4 5 7 18
M TOR 40 5 4 1 12
M TOR 41 5 4 3 14
M TOR 42 5 4 3 15
M TOR 43 5 6 2 13
M TOR 44 6 2 1 12
M TOR 45 6 2 3 14
M TOR 46 6 2 3 15
M TOR 47 6 5 4 16
M TOR 48 6 5 7 8
M TOR 49 6 5 7 18
M TOR 50 7 5 4 16
M TOR 51 8 7 5 17
M  END
$$$$
