gdb 2017	3.5461506	1.1444121	0.9964601	2.5188	75.51	-0.2334	-0.02733	0.20607	1229.4375	0.155554	-422.559176	-422.550381	-422.549437	-422.593355	32.411
 OpenBabel02181911403D

 19 20  0  0  1  0  0  0  0  0999 V2000
   -2.0152   -1.8049   -0.9471 C   0  0  0  0  0  0  0  0  0  0  0  0
   -1.3903   -0.4401   -0.9796 C   0  0  2  0  0  0  0  0  0  0  0  0
   -2.0553    0.7536   -1.6205 C   0  0  0  0  0  0  0  0  0  0  0  0
   -0.7413    0.2127   -2.1684 C   0  0  1  0  0  0  0  0  0  0  0  0
    0.5357    0.8576   -1.6648 C   0  0  0  0  0  0  0  0  0  0  0  0
    0.3640    0.8101   -0.1256 C   0  0  1  0  0  0  0  0  0  0  0  0
   -0.6132   -0.1851    0.1741 O   0  0  0  0  0  0  0  0  0  0  0  0
    1.6245    0.4603    0.6459 C   0  0  0  0  0  0  0  0  0  0  0  0
    2.7303    0.8076    0.3230 O   0  0  0  0  0  0  0  0  0  0  0  0
   -2.6947   -1.8994   -0.0938 H   0  0  0  0  0  0  0  0  0  0  0  0
   -2.5893   -1.9848   -1.8600 H   0  0  0  0  0  0  0  0  0  0  0  0
   -1.2476   -2.5803   -0.8584 H   0  0  0  0  0  0  0  0  0  0  0  0
   -2.9486    0.5690   -2.2075 H   0  0  0  0  0  0  0  0  0  0  0  0
   -2.0560    1.7044   -1.0969 H   0  0  0  0  0  0  0  0  0  0  0  0
   -0.7355   -0.2656   -3.1411 H   0  0  0  0  0  0  0  0  0  0  0  0
    1.4109    0.2752   -1.9677 H   0  0  0  0  0  0  0  0  0  0  0  0
    0.6858    1.8821   -2.0146 H   0  0  0  0  0  0  0  0  0  0  0  0
    0.0222    1.7896    0.2491 H   0  0  0  0  0  0  0  0  0  0  0  0
    1.4341   -0.1552    1.5522 H   0  0  0  0  0  0  0  0  0  0  0  0
  1 12  1  0  0  0  0
  1 10  1  0  0  0  0
  2  1  1  6  0  0  0
  2  7  1  0  0  0  0
  3 14  1  0  0  0  0
  3  2  1  0  0  0  0
  4 15  1  6  0  0  0
  4  5  1  0  0  0  0
  4  3  1  0  0  0  0
  4  2  1  0  0  0  0
  5  6  1  0  0  0  0
  6  7  1  0  0  0  0
  6 18  1  1  0  0  0
  6  8  1  0  0  0  0
  8 19  1  0  0  0  0
  9  8  2  0  0  0  0
 11  1  1  0  0  0  0
 13  3  1  0  0  0  0
 16  5  1  0  0  0  0
 17  5  1  0  0  0  0
M TOR 0 0 1 2 3
M TOR 1 0 1 2 12
M TOR 2 0 1 2 13
M TOR 3 0 1 3 4
M TOR 4 0 1 3 14
M TOR 5 0 1 6 5
M TOR 6 1 2 3 4
M TOR 7 1 2 3 14
M TOR 8 1 3 2 12
M TOR 9 1 3 2 13
M TOR 10 1 3 4 5
M TOR 11 1 3 4 15
M TOR 12 1 3 4 16
M TOR 13 1 6 5 4
M TOR 14 1 6 5 7
M TOR 15 1 6 5 17
M TOR 16 2 1 0 9
M TOR 17 2 1 0 10
M TOR 18 2 1 0 11
M TOR 19 2 1 6 5
M TOR 20 2 3 1 6
M TOR 21 2 3 4 5
M TOR 22 2 3 4 15
M TOR 23 2 3 4 16
M TOR 24 3 1 0 9
M TOR 25 3 1 0 10
M TOR 26 3 1 0 11
M TOR 27 3 1 6 5
M TOR 28 3 4 5 6
M TOR 29 3 4 5 7
M TOR 30 3 4 5 17
M TOR 31 4 3 1 6
M TOR 32 4 3 2 12
M TOR 33 4 3 2 13
M TOR 34 4 5 7 8
M TOR 35 4 5 7 18
M TOR 36 5 4 3 14
M TOR 37 6 1 0 9
M TOR 38 6 1 0 10
M TOR 39 6 1 0 11
M TOR 40 6 1 2 12
M TOR 41 6 1 2 13
M TOR 42 6 1 3 14
M TOR 43 6 5 4 15
M TOR 44 6 5 4 16
M TOR 45 6 5 7 8
M TOR 46 6 5 7 18
M TOR 47 7 5 4 15
M TOR 48 7 5 4 16
M TOR 49 8 7 5 17
M  END
$$$$
