gdb 2181	2.3553868	1.8469301	1.6152578	0.8663	74.57	-0.23888	0.06198	0.30086	960.2842	0.156445	-422.520592	-422.512549	-422.511605	-422.552458	31.875
 OpenBabel02181911403D

 19 21  0  0  1  0  0  0  0  0999 V2000
    0.0194    0.0722    0.0789 C   0  0  0  0  0  0  0  0  0  0  0  0
    1.5191    0.0574   -0.0201 C   0  0  2  0  0  0  0  0  0  0  0  0
    2.2519    0.6640   -1.2464 C   0  0  0  0  0  0  0  0  0  0  0  0
    3.4592    1.0407   -0.3430 C   0  0  2  0  0  0  0  0  0  0  0  0
    4.3167   -0.1953    0.0425 C   0  0  0  0  0  0  0  0  0  0  0  0
    3.2084   -0.6531    1.0182 C   0  0  2  0  0  0  0  0  0  0  0  0
    2.0886   -1.2362    0.3182 O   0  0  0  0  0  0  0  0  0  0  0  0
    2.5618    0.7718    0.9180 C   0  0  2  0  0  0  0  0  0  0  0  0
    2.3485    1.7182    1.8930 O   0  0  0  0  0  0  0  0  0  0  0  0
   -0.3114   -0.2589    1.0688 H   0  0  0  0  0  0  0  0  0  0  0  0
   -0.3729    1.0770   -0.1053 H   0  0  0  0  0  0  0  0  0  0  0  0
   -0.4177   -0.6062   -0.6627 H   0  0  0  0  0  0  0  0  0  0  0  0
    2.4316   -0.0111   -2.0873 H   0  0  0  0  0  0  0  0  0  0  0  0
    1.7343    1.5610   -1.6018 H   0  0  0  0  0  0  0  0  0  0  0  0
    3.9667    1.9858   -0.5299 H   0  0  0  0  0  0  0  0  0  0  0  0
    4.5972   -0.8972   -0.7473 H   0  0  0  0  0  0  0  0  0  0  0  0
    5.2103    0.1098    0.5969 H   0  0  0  0  0  0  0  0  0  0  0  0
    3.4693   -1.2117    1.9201 H   0  0  0  0  0  0  0  0  0  0  0  0
    1.7766    1.3408    2.5717 H   0  0  0  0  0  0  0  0  0  0  0  0
  1 10  1  0  0  0  0
  2  1  1  1  0  0  0
  2  7  1  0  0  0  0
  2  8  1  0  0  0  0
  3  4  1  0  0  0  0
  3  2  1  0  0  0  0
  4 15  1  6  0  0  0
  4  5  1  0  0  0  0
  4  8  1  0  0  0  0
  5 17  1  0  0  0  0
  5  6  1  0  0  0  0
  6 18  1  1  0  0  0
  7  6  1  0  0  0  0
  8  6  1  0  0  0  0
  8  9  1  1  0  0  0
  9 19  1  0  0  0  0
 11  1  1  0  0  0  0
 12  1  1  0  0  0  0
 13  3  1  0  0  0  0
 14  3  1  0  0  0  0
 16  5  1  0  0  0  0
M TOR 0 0 1 2 3
M TOR 1 0 1 2 12
M TOR 2 0 1 2 13
M TOR 3 0 1 6 5
M TOR 4 0 1 7 3
M TOR 5 0 1 7 5
M TOR 6 0 1 7 8
M TOR 7 1 2 3 4
M TOR 8 1 2 3 7
M TOR 9 1 2 3 14
M TOR 10 1 6 5 4
M TOR 11 1 6 5 7
M TOR 12 1 6 5 17
M TOR 13 1 7 3 4
M TOR 14 1 7 3 14
M TOR 15 1 7 5 4
M TOR 16 1 7 5 17
M TOR 17 1 7 8 18
M TOR 18 2 1 0 9
M TOR 19 2 1 0 10
M TOR 20 2 1 0 11
M TOR 21 2 1 6 5
M TOR 22 2 1 7 5
M TOR 23 2 1 7 8
M TOR 24 2 3 4 5
M TOR 25 2 3 4 15
M TOR 26 2 3 4 16
M TOR 27 2 3 7 5
M TOR 28 2 3 7 8
M TOR 29 3 2 1 6
M TOR 30 3 4 5 6
M TOR 31 3 4 5 7
M TOR 32 3 4 5 17
M TOR 33 3 7 1 6
M TOR 34 3 7 5 6
M TOR 35 3 7 5 17
M TOR 36 3 7 8 18
M TOR 37 4 3 2 12
M TOR 38 4 3 2 13
M TOR 39 4 3 7 8
M TOR 40 4 5 7 8
M TOR 41 5 4 3 14
M TOR 42 5 7 3 14
M TOR 43 5 7 8 18
M TOR 44 6 1 0 9
M TOR 45 6 1 0 10
M TOR 46 6 1 0 11
M TOR 47 6 1 2 12
M TOR 48 6 1 2 13
M TOR 49 6 1 7 8
M TOR 50 6 5 4 15
M TOR 51 6 5 4 16
M TOR 52 6 5 7 8
M TOR 53 7 1 0 9
M TOR 54 7 1 0 10
M TOR 55 7 1 0 11
M TOR 56 7 1 2 12
M TOR 57 7 1 2 13
M TOR 58 7 3 2 12
M TOR 59 7 3 2 13
M TOR 60 7 3 4 15
M TOR 61 7 3 4 16
M TOR 62 7 5 4 15
M TOR 63 7 5 4 16
M TOR 64 8 7 3 14
M TOR 65 8 7 5 17
M  END
$$$$
