
     RDKit          3D

 19 20  0  0  0  0  0  0  0  0999 V2000
    0.6289    0.5393   -2.3267 C   0  0  0  0  0  0  0  0  0  0  0  0
    1.2463    0.4905   -0.9540 C   0  0  0  0  0  0  0  0  0  0  0  0
    1.5829   -0.7917   -0.4326 O   0  0  0  0  0  0  0  0  0  0  0  0
    0.5229   -0.0722    0.2083 C   0  0  0  0  0  0  0  0  0  0  0  0
    0.7483    0.4627    1.5969 C   0  0  0  0  0  0  0  0  0  0  0  0
   -0.2103    0.8023    2.2632 O   0  0  0  0  0  0  0  0  0  0  0  0
    2.1499    0.5677    2.0788 C   0  0  0  0  0  0  0  0  0  0  0  0
    2.3706    0.4293    3.5788 C   0  0  0  0  0  0  0  0  0  0  0  0
    2.4929    1.7719    2.9503 C   0  0  0  0  0  0  0  0  0  0  0  0
    0.1414    1.5056   -2.4917 H   0  0  0  0  0  0  0  0  0  0  0  0
    1.3984    0.4133   -3.0955 H   0  0  0  0  0  0  0  0  0  0  0  0
   -0.1122   -0.2547   -2.4473 H   0  0  0  0  0  0  0  0  0  0  0  0
    1.9957    1.2563   -0.7455 H   0  0  0  0  0  0  0  0  0  0  0  0
   -0.4801   -0.4645    0.0484 H   0  0  0  0  0  0  0  0  0  0  0  0
    2.9125    0.1754    1.4191 H   0  0  0  0  0  0  0  0  0  0  0  0
    1.4795    0.2315    4.1634 H   0  0  0  0  0  0  0  0  0  0  0  0
    3.2682   -0.0891    3.8949 H   0  0  0  0  0  0  0  0  0  0  0  0
    1.6848    2.4755    3.1145 H   0  0  0  0  0  0  0  0  0  0  0  0
    3.4770    2.2075    2.8206 H   0  0  0  0  0  0  0  0  0  0  0  0
  1  2  1  0
  2  3  1  0
  3  4  1  0
  4  5  1  0
  5  6  2  0
  5  7  1  0
  7  8  1  0
  8  9  1  0
  4  2  1  0
  9  7  1  0
  1 10  1  0
  1 11  1  0
  1 12  1  0
  2 13  1  0
  4 14  1  0
  7 15  1  0
  8 16  1  0
  8 17  1  0
  9 18  1  0
  9 19  1  0
M  END
$$$$
