
     RDKit          3D

 19 18  0  0  0  0  0  0  0  0999 V2000
    3.4199    2.2240   -0.6633 C   0  0  0  0  0  0  0  0  0  0  0  0
    2.4921    2.1451    0.5628 C   0  0  0  0  0  0  0  0  0  0  0  0
    1.9635    0.8045    0.7990 C   0  0  0  0  0  0  0  0  0  0  0  0
    1.5087   -0.2948    0.9970 C   0  0  0  0  0  0  0  0  0  0  0  0
    1.0212   -1.6551    1.1920 C   0  0  0  0  0  0  0  0  0  0  0  0
    1.5900   -2.6012    0.1122 C   0  0  0  0  0  0  0  0  0  0  0  0
    2.9998   -2.6310    0.0948 O   0  0  0  0  0  0  0  0  0  0  0  0
    1.1231   -4.0334    0.3284 C   0  0  0  0  0  0  0  0  0  0  0  0
    0.0126   -4.3292    0.6849 O   0  0  0  0  0  0  0  0  0  0  0  0
    4.2867    1.5685   -0.5395 H   0  0  0  0  0  0  0  0  0  0  0  0
    2.8922    1.9198   -1.5713 H   0  0  0  0  0  0  0  0  0  0  0  0
    3.7818    3.2468   -0.8016 H   0  0  0  0  0  0  0  0  0  0  0  0
    3.0338    2.4847    1.4547 H   0  0  0  0  0  0  0  0  0  0  0  0
    1.6561    2.8442    0.4337 H   0  0  0  0  0  0  0  0  0  0  0  0
    1.3223   -2.0277    2.1788 H   0  0  0  0  0  0  0  0  0  0  0  0
   -0.0721   -1.7041    1.1538 H   0  0  0  0  0  0  0  0  0  0  0  0
    1.1875   -2.2834   -0.8670 H   0  0  0  0  0  0  0  0  0  0  0  0
    3.3005   -1.7145    0.0659 H   0  0  0  0  0  0  0  0  0  0  0  0
    1.9058   -4.7935    0.1157 H   0  0  0  0  0  0  0  0  0  0  0  0
  1  2  1  0
  2  3  1  0
  3  4  3  0
  4  5  1  0
  5  6  1  0
  6  7  1  0
  6  8  1  0
  8  9  2  0
  1 10  1  0
  1 11  1  0
  1 12  1  0
  2 13  1  0
  2 14  1  0
  5 15  1  0
  5 16  1  0
  6 17  1  0
  7 18  1  0
  8 19  1  0
M  END
$$$$
