
     RDKit          3D

 19 21  0  0  0  0  0  0  0  0999 V2000
    1.3144    0.8871    0.3915 C   0  0  0  0  0  0  0  0  0  0  0  0
    0.7848   -0.4643   -0.1084 C   0  0  0  0  0  0  0  0  0  0  0  0
    1.5809   -0.9921   -1.2575 C   0  0  0  0  0  0  0  0  0  0  0  0
    2.9677   -1.2911   -1.0360 O   0  0  0  0  0  0  0  0  0  0  0  0
    2.9299   -2.2320   -2.1540 C   0  0  0  0  0  0  0  0  0  0  0  0
    3.4439   -1.4789   -3.3717 C   0  0  0  0  0  0  0  0  0  0  0  0
    2.5219   -0.3898   -3.5164 O   0  0  0  0  0  0  0  0  0  0  0  0
    1.3874   -0.6997   -2.7412 C   0  0  0  0  0  0  0  0  0  0  0  0
    1.3921   -2.1205   -2.2511 C   0  0  0  0  0  0  0  0  0  0  0  0
    0.7396    1.2359    1.2542 H   0  0  0  0  0  0  0  0  0  0  0  0
    2.3627    0.8013    0.6904 H   0  0  0  0  0  0  0  0  0  0  0  0
    1.2514    1.6480   -0.3926 H   0  0  0  0  0  0  0  0  0  0  0  0
    0.8055   -1.1994    0.7060 H   0  0  0  0  0  0  0  0  0  0  0  0
   -0.2613   -0.3724   -0.4250 H   0  0  0  0  0  0  0  0  0  0  0  0
    3.4053   -3.1849   -1.9198 H   0  0  0  0  0  0  0  0  0  0  0  0
    4.4459   -1.0719   -3.2069 H   0  0  0  0  0  0  0  0  0  0  0  0
    3.4478   -2.1088   -4.2749 H   0  0  0  0  0  0  0  0  0  0  0  0
    0.4805   -0.2144   -3.0823 H   0  0  0  0  0  0  0  0  0  0  0  0
    0.6525   -2.8978   -2.3888 H   0  0  0  0  0  0  0  0  0  0  0  0
  1  2  1  0
  2  3  1  0
  3  4  1  0
  4  5  1  0
  5  6  1  0
  6  7  1  0
  7  8  1  0
  8  9  1  0
  8  3  1  0
  9  3  1  0
  9  5  1  0
  1 10  1  0
  1 11  1  0
  1 12  1  0
  2 13  1  0
  2 14  1  0
  5 15  1  0
  6 16  1  0
  6 17  1  0
  8 18  1  0
  9 19  1  0
M  END
$$$$
