
     RDKit          3D

 19 21  0  0  0  0  0  0  0  0999 V2000
   -5.2771    0.6411   -1.8708 O   0  0  0  0  0  0  0  0  0  0  0  0
   -4.6235    0.1053   -0.7579 C   0  0  0  0  0  0  0  0  0  0  0  0
   -3.1623   -0.2511   -0.8737 C   0  0  0  0  0  0  0  0  0  0  0  0
   -3.6179    0.9572   -0.0243 C   0  0  0  0  0  0  0  0  0  0  0  0
   -3.0729    0.5326    1.3511 C   0  0  0  0  0  0  0  0  0  0  0  0
   -3.4011   -0.9816    1.4437 C   0  0  0  0  0  0  0  0  0  0  0  0
   -2.4622   -1.0873    0.2124 C   0  0  0  0  0  0  0  0  0  0  0  0
   -1.6312    0.0349    0.9470 C   0  0  0  0  0  0  0  0  0  0  0  0
   -0.7473    0.8575    0.2509 O   0  0  0  0  0  0  0  0  0  0  0  0
   -4.6649    1.2106   -2.3485 H   0  0  0  0  0  0  0  0  0  0  0  0
   -5.3214   -0.5303   -0.2280 H   0  0  0  0  0  0  0  0  0  0  0  0
   -2.6913   -0.1439   -1.8467 H   0  0  0  0  0  0  0  0  0  0  0  0
   -3.4943    1.9865   -0.3491 H   0  0  0  0  0  0  0  0  0  0  0  0
   -3.2394    1.2111    2.1872 H   0  0  0  0  0  0  0  0  0  0  0  0
   -2.9538   -1.4360    2.3300 H   0  0  0  0  0  0  0  0  0  0  0  0
   -4.4346   -1.3125    1.3602 H   0  0  0  0  0  0  0  0  0  0  0  0
   -2.0162   -2.0333   -0.0935 H   0  0  0  0  0  0  0  0  0  0  0  0
   -1.0784   -0.3586    1.8032 H   0  0  0  0  0  0  0  0  0  0  0  0
   -1.2209    1.2131   -0.5097 H   0  0  0  0  0  0  0  0  0  0  0  0
  1  2  1  0
  2  3  1  0
  3  4  1  0
  4  5  1  0
  5  6  1  0
  6  7  1  0
  7  8  1  0
  8  9  1  0
  4  2  1  0
  8  5  1  0
  7  3  1  0
  1 10  1  0
  2 11  1  0
  3 12  1  0
  4 13  1  0
  5 14  1  0
  6 15  1  0
  6 16  1  0
  7 17  1  0
  8 18  1  0
  9 19  1  0
M  END
$$$$
