
     RDKit          3D

 19 21  0  0  0  0  0  0  0  0999 V2000
   -0.0935   -0.3234    0.1165 C   0  0  0  0  0  0  0  0  0  0  0  0
    1.2218    0.4109    0.2460 C   0  0  0  0  0  0  0  0  0  0  0  0
    2.0643   -0.1956    1.2078 O   0  0  0  0  0  0  0  0  0  0  0  0
    1.4596    1.9145    0.1803 C   0  0  0  0  0  0  0  0  0  0  0  0
    2.0924    0.9682   -0.8494 C   0  0  0  0  0  0  0  0  0  0  0  0
    1.4694    1.5882   -2.1148 C   0  0  0  0  0  0  0  0  0  0  0  0
    1.7337    3.1061   -1.9016 C   0  0  0  0  0  0  0  0  0  0  0  0
    0.6727    2.8001   -0.8064 C   0  0  0  0  0  0  0  0  0  0  0  0
    0.0815    1.8452   -1.7408 O   0  0  0  0  0  0  0  0  0  0  0  0
   -0.6300   -0.2898    1.0746 H   0  0  0  0  0  0  0  0  0  0  0  0
   -0.7307    0.1079   -0.6503 H   0  0  0  0  0  0  0  0  0  0  0  0
    0.1026   -1.3755   -0.1160 H   0  0  0  0  0  0  0  0  0  0  0  0
    1.5741   -0.2279    2.0369 H   0  0  0  0  0  0  0  0  0  0  0  0
    2.0386    2.3745    0.9723 H   0  0  0  0  0  0  0  0  0  0  0  0
    3.1456    0.7145   -0.8394 H   0  0  0  0  0  0  0  0  0  0  0  0
    1.5843    1.0834   -3.0737 H   0  0  0  0  0  0  0  0  0  0  0  0
    2.7310    3.4340   -1.5976 H   0  0  0  0  0  0  0  0  0  0  0  0
    1.3289    3.7137   -2.7129 H   0  0  0  0  0  0  0  0  0  0  0  0
   -0.0310    3.5394   -0.4243 H   0  0  0  0  0  0  0  0  0  0  0  0
  1  2  1  0
  2  3  1  0
  2  4  1  0
  4  5  1  0
  5  6  1  0
  6  7  1  0
  7  8  1  0
  8  9  1  0
  5  2  1  0
  9  6  1  0
  8  4  1  0
  1 10  1  0
  1 11  1  0
  1 12  1  0
  3 13  1  0
  4 14  1  0
  5 15  1  0
  6 16  1  0
  7 17  1  0
  7 18  1  0
  8 19  1  0
M  END
$$$$
