gdb 1716	3.2963807	1.2105377	1.1851175	1.1809	77.04	-0.23637	0.01174	0.24811	1143.3033	0.15587	-422.536739	-422.52809	-422.527146	-422.570281	32.231
 OpenBabel02181911403D

 19 20  0  0  1  0  0  0  0  0999 V2000
    3.5672    0.2625   -1.9661 C   0  0  0  0  0  0  0  0  0  0  0  0
    3.5739   -0.7832   -0.8475 C   0  0  1  0  0  0  0  0  0  0  0  0
    4.8899   -1.3553   -0.7249 O   0  0  0  0  0  0  0  0  0  0  0  0
    5.4199   -1.1388    0.5810 C   0  0  0  0  0  0  0  0  0  0  0  0
    4.3485   -0.3858    1.3176 C   0  0  0  0  0  0  0  0  0  0  0  0
    3.3107   -0.1836    0.5166 C   0  0  0  0  0  0  0  0  0  0  0  0
    2.6065   -1.9397   -1.1047 C   0  0  2  0  0  0  0  0  0  0  0  0
    2.0782   -2.3133   -2.4208 C   0  0  0  0  0  0  0  0  0  0  0  0
    1.2694   -1.6001   -1.4785 O   0  0  0  0  0  0  0  0  0  0  0  0
    4.1503    1.1362   -1.6653 H   0  0  0  0  0  0  0  0  0  0  0  0
    4.0170   -0.1526   -2.8718 H   0  0  0  0  0  0  0  0  0  0  0  0
    2.5435    0.5775   -2.1868 H   0  0  0  0  0  0  0  0  0  0  0  0
    5.6573   -2.1045    1.0541 H   0  0  0  0  0  0  0  0  0  0  0  0
    6.3625   -0.5731    0.5144 H   0  0  0  0  0  0  0  0  0  0  0  0
    4.4495   -0.0671    2.3475 H   0  0  0  0  0  0  0  0  0  0  0  0
    2.3840    0.3233    0.7523 H   0  0  0  0  0  0  0  0  0  0  0  0
    2.6756   -2.7198   -0.3451 H   0  0  0  0  0  0  0  0  0  0  0  0
    2.3633   -1.7522   -3.3071 H   0  0  0  0  0  0  0  0  0  0  0  0
    1.7813   -3.3455   -2.6001 H   0  0  0  0  0  0  0  0  0  0  0  0
  1 10  1  0  0  0  0
  2  1  1  6  0  0  0
  2  3  1  0  0  0  0
  2  6  1  0  0  0  0
  3  4  1  0  0  0  0
  4 13  1  0  0  0  0
  4  5  1  0  0  0  0
  5 15  1  0  0  0  0
  6 16  1  0  0  0  0
  6  5  2  0  0  0  0
  7  2  1  0  0  0  0
  7 17  1  1  0  0  0
  8  9  1  0  0  0  0
  8  7  1  0  0  0  0
  9  7  1  0  0  0  0
 11  1  1  0  0  0  0
 12  1  1  0  0  0  0
 14  4  1  0  0  0  0
 18  8  1  0  0  0  0
 19  8  1  0  0  0  0
M TOR 0 0 1 2 3
M TOR 1 0 1 5 4
M TOR 2 0 1 5 15
M TOR 3 0 1 6 7
M TOR 4 0 1 6 8
M TOR 5 0 1 6 16
M TOR 6 1 2 3 4
M TOR 7 1 2 3 12
M TOR 8 1 2 3 13
M TOR 9 1 5 4 3
M TOR 10 1 5 4 14
M TOR 11 1 6 7 8
M TOR 12 1 6 7 17
M TOR 13 1 6 7 18
M TOR 14 2 1 0 9
M TOR 15 2 1 0 10
M TOR 16 2 1 0 11
M TOR 17 2 1 5 4
M TOR 18 2 1 5 15
M TOR 19 2 1 6 7
M TOR 20 2 1 6 8
M TOR 21 2 1 6 16
M TOR 22 2 3 4 5
M TOR 23 2 3 4 14
M TOR 24 3 2 1 5
M TOR 25 3 2 1 6
M TOR 26 3 4 5 15
M TOR 27 4 5 1 6
M TOR 28 5 1 0 9
M TOR 29 5 1 0 10
M TOR 30 5 1 0 11
M TOR 31 5 1 6 7
M TOR 32 5 1 6 8
M TOR 33 5 1 6 16
M TOR 34 5 4 3 12
M TOR 35 5 4 3 13
M TOR 36 6 1 0 9
M TOR 37 6 1 0 10
M TOR 38 6 1 0 11
M TOR 39 6 1 5 15
M TOR 40 6 8 7 17
M TOR 41 6 8 7 18
M TOR 42 7 8 6 16
M  END
$$$$
