gdb 5733	3.4178334	1.0539372	0.9069089	3.097	78.02	-0.24152	0.00749	0.24901	1307.9152	0.156684	-422.546458	-422.537755	-422.536811	-422.580547	32.415
 OpenBabel02181911423D

 19 20  0  0  1  0  0  0  0  0999 V2000
    1.4472    0.7984   -0.0883 O   0  0  0  0  0  0  0  0  0  0  0  0
    0.0979    0.4265    0.1500 C   0  0  0  0  0  0  0  0  0  0  0  0
   -0.7907    1.2766   -0.7615 C   0  0  1  0  0  0  0  0  0  0  0  0
   -0.5728    0.9692   -2.2691 C   0  0  0  0  0  0  0  0  0  0  0  0
   -1.8627    0.2875   -2.7362 C   0  0  2  0  0  0  0  0  0  0  0  0
   -1.9271   -0.7851   -3.7425 C   0  0  0  0  0  0  0  0  0  0  0  0
   -2.3230    0.5460   -4.0735 O   0  0  0  0  0  0  0  0  0  0  0  0
   -2.8315    0.4235   -1.6176 C   0  0  0  0  0  0  0  0  0  0  0  0
   -2.2592    0.9763   -0.5487 C   0  0  0  0  0  0  0  0  0  0  0  0
    2.0153    0.2311    0.4406 H   0  0  0  0  0  0  0  0  0  0  0  0
   -0.0707   -0.6403   -0.0698 H   0  0  0  0  0  0  0  0  0  0  0  0
   -0.1821    0.5952    1.2023 H   0  0  0  0  0  0  0  0  0  0  0  0
   -0.5620    2.3249   -0.5320 H   0  0  0  0  0  0  0  0  0  0  0  0
   -0.4423    1.8903   -2.8435 H   0  0  0  0  0  0  0  0  0  0  0  0
    0.3187    0.3591   -2.4301 H   0  0  0  0  0  0  0  0  0  0  0  0
   -1.0048   -1.1318   -4.2091 H   0  0  0  0  0  0  0  0  0  0  0  0
   -2.7313   -1.5209   -3.7104 H   0  0  0  0  0  0  0  0  0  0  0  0
   -3.8640    0.1069   -1.7072 H   0  0  0  0  0  0  0  0  0  0  0  0
   -2.7568    1.1733    0.3951 H   0  0  0  0  0  0  0  0  0  0  0  0
  1  2  1  0  0  0  0
  1 10  1  0  0  0  0
  2 12  1  0  0  0  0
  3  9  1  0  0  0  0
  3 13  1  1  0  0  0
  3  2  1  0  0  0  0
  4  3  1  0  0  0  0
  5  7  1  6  0  0  0
  5  4  1  0  0  0  0
  5  8  1  0  0  0  0
  6 17  1  0  0  0  0
  6  5  1  0  0  0  0
  7  6  1  0  0  0  0
  8  9  2  0  0  0  0
  9 19  1  0  0  0  0
 11  2  1  0  0  0  0
 14  4  1  0  0  0  0
 15  4  1  0  0  0  0
 16  6  1  0  0  0  0
 18  8  1  0  0  0  0
M TOR 0 0 1 2 3
M TOR 1 0 1 2 8
M TOR 2 0 1 2 12
M TOR 3 1 2 3 4
M TOR 4 1 2 3 13
M TOR 5 1 2 3 14
M TOR 6 1 2 8 7
M TOR 7 1 2 8 18
M TOR 8 2 1 0 9
M TOR 9 2 3 4 5
M TOR 10 2 3 4 6
M TOR 11 2 3 4 7
M TOR 12 2 8 7 4
M TOR 13 2 8 7 17
M TOR 14 3 2 1 10
M TOR 15 3 2 1 11
M TOR 16 3 2 8 7
M TOR 17 3 2 8 18
M TOR 18 3 4 5 6
M TOR 19 3 4 5 15
M TOR 20 3 4 5 16
M TOR 21 3 4 7 8
M TOR 22 3 4 7 17
M TOR 23 4 3 2 8
M TOR 24 4 3 2 12
M TOR 25 4 6 5 15
M TOR 26 4 6 5 16
M TOR 27 4 7 8 18
M TOR 28 5 4 3 13
M TOR 29 5 4 3 14
M TOR 30 5 4 7 8
M TOR 31 5 4 7 17
M TOR 32 5 6 4 7
M TOR 33 6 4 3 13
M TOR 34 6 4 3 14
M TOR 35 6 4 7 8
M TOR 36 6 4 7 17
M TOR 37 7 4 3 13
M TOR 38 7 4 3 14
M TOR 39 7 4 5 15
M TOR 40 7 4 5 16
M TOR 41 7 8 2 12
M TOR 42 8 2 1 10
M TOR 43 8 2 1 11
M TOR 44 8 2 3 13
M TOR 45 8 2 3 14
M  END
$$$$
