
     RDKit          3D

 19 20  0  0  0  0  0  0  0  0999 V2000
    1.4482    0.3819   -0.4581 O   0  0  0  0  0  0  0  0  0  0  0  0
    0.0883    0.2838   -0.0528 C   0  0  0  0  0  0  0  0  0  0  0  0
   -0.7787    0.4674   -1.2772 C   0  0  0  0  0  0  0  0  0  0  0  0
   -1.0125   -0.7530   -2.1584 C   0  0  0  0  0  0  0  0  0  0  0  0
   -2.1269   -0.2012   -1.3092 C   0  0  0  0  0  0  0  0  0  0  0  0
   -3.1762    0.4395   -1.9759 O   0  0  0  0  0  0  0  0  0  0  0  0
   -3.1971    1.8574   -1.8642 C   0  0  0  0  0  0  0  0  0  0  0  0
   -1.8549    2.4895   -2.1342 C   0  0  0  0  0  0  0  0  0  0  0  0
   -0.7298    1.8218   -1.8910 C   0  0  0  0  0  0  0  0  0  0  0  0
    1.9954    0.4095    0.3323 H   0  0  0  0  0  0  0  0  0  0  0  0
   -0.1196   -0.6974    0.4038 H   0  0  0  0  0  0  0  0  0  0  0  0
   -0.1573    1.0563    0.6929 H   0  0  0  0  0  0  0  0  0  0  0  0
   -1.1021   -0.5884   -3.2254 H   0  0  0  0  0  0  0  0  0  0  0  0
   -0.5424   -1.6863   -1.8662 H   0  0  0  0  0  0  0  0  0  0  0  0
   -2.4501   -0.7690   -0.4371 H   0  0  0  0  0  0  0  0  0  0  0  0
   -3.9379    2.1941   -2.5967 H   0  0  0  0  0  0  0  0  0  0  0  0
   -3.5689    2.1629   -0.8702 H   0  0  0  0  0  0  0  0  0  0  0  0
   -1.8460    3.4982   -2.5365 H   0  0  0  0  0  0  0  0  0  0  0  0
    0.2498    2.2449   -2.0896 H   0  0  0  0  0  0  0  0  0  0  0  0
  1  2  1  0
  2  3  1  0
  3  4  1  0
  4  5  1  0
  5  6  1  0
  6  7  1  0
  7  8  1  0
  8  9  2  0
  5  3  1  0
  9  3  1  0
  1 10  1  0
  2 11  1  0
  2 12  1  0
  4 13  1  0
  4 14  1  0
  5 15  1  0
  7 16  1  0
  7 17  1  0
  8 18  1  0
  9 19  1  0
M  END
$$$$
