
     RDKit          3D

 19 18  0  0  0  0  0  0  0  0999 V2000
   -2.5715    2.4387    1.0713 C   0  0  0  0  0  0  0  0  0  0  0  0
   -1.8480    1.4823    0.1169 C   0  0  0  0  0  0  0  0  0  0  0  0
   -0.4701    1.1417    0.6714 C   0  0  0  0  0  0  0  0  0  0  0  0
    0.1290    0.1378   -0.1780 O   0  0  0  0  0  0  0  0  0  0  0  0
    1.3642   -0.2546    0.1599 C   0  0  0  0  0  0  0  0  0  0  0  0
    2.0028    0.1505    1.0915 O   0  0  0  0  0  0  0  0  0  0  0  0
   -1.7308    2.0684   -1.3117 C   0  0  0  0  0  0  0  0  0  0  0  0
   -3.0205    2.2825   -1.9554 C   0  0  0  0  0  0  0  0  0  0  0  0
   -4.0941    2.4451   -2.4715 C   0  0  0  0  0  0  0  0  0  0  0  0
   -2.7016    1.9890    2.0606 H   0  0  0  0  0  0  0  0  0  0  0  0
   -2.0090    3.3713    1.1973 H   0  0  0  0  0  0  0  0  0  0  0  0
   -3.5587    2.6936    0.6788 H   0  0  0  0  0  0  0  0  0  0  0  0
   -2.4207    0.5496    0.0480 H   0  0  0  0  0  0  0  0  0  0  0  0
    0.1853    2.0196    0.7000 H   0  0  0  0  0  0  0  0  0  0  0  0
   -0.5376    0.7460    1.6894 H   0  0  0  0  0  0  0  0  0  0  0  0
    1.7027   -1.0159   -0.5601 H   0  0  0  0  0  0  0  0  0  0  0  0
   -1.1816    3.0194   -1.2644 H   0  0  0  0  0  0  0  0  0  0  0  0
   -1.1254    1.3914   -1.9243 H   0  0  0  0  0  0  0  0  0  0  0  0
   -5.0354    2.5933   -2.9397 H   0  0  0  0  0  0  0  0  0  0  0  0
  1  2  1  0
  2  3  1  0
  3  4  1  0
  4  5  1  0
  5  6  2  0
  2  7  1  0
  7  8  1  0
  8  9  3  0
  1 10  1  0
  1 11  1  0
  1 12  1  0
  2 13  1  0
  3 14  1  0
  3 15  1  0
  5 16  1  0
  7 17  1  0
  7 18  1  0
  9 19  1  0
M  END
$$$$
