
     RDKit          3D

 19 20  0  0  0  0  0  0  0  0999 V2000
   -2.0004   -1.9422    4.3800 C   0  0  0  0  0  0  0  0  0  0  0  0
   -1.1814   -0.7347    3.9227 C   0  0  0  0  0  0  0  0  0  0  0  0
    0.2111   -1.0717    3.9027 O   0  0  0  0  0  0  0  0  0  0  0  0
    0.7884   -0.7511    2.6432 C   0  0  0  0  0  0  0  0  0  0  0  0
   -0.3646   -0.2920    1.7825 C   0  0  0  0  0  0  0  0  0  0  0  0
   -1.4709   -0.2654    2.5228 C   0  0  0  0  0  0  0  0  0  0  0  0
   -0.2245    0.0906    0.3681 C   0  0  0  0  0  0  0  0  0  0  0  0
    0.6904   -0.5990   -0.5634 C   0  0  0  0  0  0  0  0  0  0  0  0
    1.0316    0.6729   -0.0244 O   0  0  0  0  0  0  0  0  0  0  0  0
   -1.6560   -2.2768    5.3625 H   0  0  0  0  0  0  0  0  0  0  0  0
   -3.0613   -1.6818    4.4578 H   0  0  0  0  0  0  0  0  0  0  0  0
   -1.8920   -2.7691    3.6721 H   0  0  0  0  0  0  0  0  0  0  0  0
   -1.3377    0.0865    4.6442 H   0  0  0  0  0  0  0  0  0  0  0  0
    1.5462    0.0393    2.7507 H   0  0  0  0  0  0  0  0  0  0  0  0
    1.3007   -1.6373    2.2395 H   0  0  0  0  0  0  0  0  0  0  0  0
   -2.4552    0.0498    2.1980 H   0  0  0  0  0  0  0  0  0  0  0  0
   -1.0946    0.5812   -0.0681 H   0  0  0  0  0  0  0  0  0  0  0  0
    1.2926   -1.4359   -0.2148 H   0  0  0  0  0  0  0  0  0  0  0  0
    0.4484   -0.6119   -1.6256 H   0  0  0  0  0  0  0  0  0  0  0  0
  1  2  1  0
  2  3  1  0
  3  4  1  0
  4  5  1  0
  5  6  2  0
  5  7  1  0
  7  8  1  0
  8  9  1  0
  6  2  1  0
  9  7  1  0
  1 10  1  0
  1 11  1  0
  1 12  1  0
  2 13  1  0
  4 14  1  0
  4 15  1  0
  6 16  1  0
  7 17  1  0
  8 18  1  0
  8 19  1  0
M  END
$$$$
