
     RDKit          3D

 19 20  0  0  0  0  0  0  0  0999 V2000
    1.4839   -0.1270   -0.1198 O   0  0  0  0  0  0  0  0  0  0  0  0
    0.3061    0.1056   -0.1963 C   0  0  0  0  0  0  0  0  0  0  0  0
   -0.3624    0.8853   -1.3032 C   0  0  0  0  0  0  0  0  0  0  0  0
   -1.1569    2.1086   -0.7416 C   0  0  0  0  0  0  0  0  0  0  0  0
   -2.5336    1.8652   -0.9919 O   0  0  0  0  0  0  0  0  0  0  0  0
   -2.6012    1.0541   -2.1377 C   0  0  0  0  0  0  0  0  0  0  0  0
   -3.9513    0.7762   -2.6949 C   0  0  0  0  0  0  0  0  0  0  0  0
   -2.9915    1.6861   -3.4506 C   0  0  0  0  0  0  0  0  0  0  0  0
   -1.4691    0.0524   -2.0060 C   0  0  0  0  0  0  0  0  0  0  0  0
   -0.4061   -0.2524    0.5866 H   0  0  0  0  0  0  0  0  0  0  0  0
    0.4087    1.2081   -2.0047 H   0  0  0  0  0  0  0  0  0  0  0  0
   -1.0368    2.2451    0.3383 H   0  0  0  0  0  0  0  0  0  0  0  0
   -0.8201    3.0256   -1.2434 H   0  0  0  0  0  0  0  0  0  0  0  0
   -4.1513   -0.2130   -3.0928 H   0  0  0  0  0  0  0  0  0  0  0  0
   -4.7930    1.2443   -2.1973 H   0  0  0  0  0  0  0  0  0  0  0  0
   -2.5430    1.3168   -4.3671 H   0  0  0  0  0  0  0  0  0  0  0  0
   -3.2104    2.7479   -3.4410 H   0  0  0  0  0  0  0  0  0  0  0  0
   -1.7847   -0.7813   -1.3664 H   0  0  0  0  0  0  0  0  0  0  0  0
   -1.1347   -0.3604   -2.9593 H   0  0  0  0  0  0  0  0  0  0  0  0
  1  2  2  0
  2  3  1  0
  3  4  1  0
  4  5  1  0
  5  6  1  0
  6  7  1  0
  7  8  1  0
  6  9  1  0
  9  3  1  0
  8  6  1  0
  2 10  1  0
  3 11  1  0
  4 12  1  0
  4 13  1  0
  7 14  1  0
  7 15  1  0
  8 16  1  0
  8 17  1  0
  9 18  1  0
  9 19  1  0
M  END
$$$$
