
     RDKit          3D

 19 21  0  0  0  0  0  0  0  0999 V2000
    1.2087    1.1541   -0.0822 C   0  0  0  0  0  0  0  0  0  0  0  0
    0.9684   -0.3401    0.0947 C   0  0  0  0  0  0  0  0  0  0  0  0
    1.6543   -1.2087   -0.9609 C   0  0  0  0  0  0  0  0  0  0  0  0
    1.9712   -2.5397   -0.2162 C   0  0  0  0  0  0  0  0  0  0  0  0
    1.4507   -2.4241    1.1023 O   0  0  0  0  0  0  0  0  0  0  0  0
    1.9240   -1.0416    1.1129 C   0  0  0  0  0  0  0  0  0  0  0  0
    2.2404   -0.5163    2.4773 C   0  0  0  0  0  0  0  0  0  0  0  0
    2.8993   -1.3780   -0.1227 C   0  0  0  0  0  0  0  0  0  0  0  0
    4.2065   -1.1224   -0.4373 O   0  0  0  0  0  0  0  0  0  0  0  0
    0.8695    1.7171    0.7942 H   0  0  0  0  0  0  0  0  0  0  0  0
    2.2721    1.3685   -0.2366 H   0  0  0  0  0  0  0  0  0  0  0  0
    0.6648    1.5375   -0.9517 H   0  0  0  0  0  0  0  0  0  0  0  0
   -0.0897   -0.5528    0.2879 H   0  0  0  0  0  0  0  0  0  0  0  0
    1.5765   -1.1660   -2.0403 H   0  0  0  0  0  0  0  0  0  0  0  0
    2.0236   -3.5104   -0.6909 H   0  0  0  0  0  0  0  0  0  0  0  0
    2.9996   -1.1335    2.9668 H   0  0  0  0  0  0  0  0  0  0  0  0
    2.6106    0.5113    2.4214 H   0  0  0  0  0  0  0  0  0  0  0  0
    1.3413   -0.5250    3.1037 H   0  0  0  0  0  0  0  0  0  0  0  0
    4.7675   -1.7090    0.0839 H   0  0  0  0  0  0  0  0  0  0  0  0
  1  2  1  0
  2  3  1  0
  3  4  1  0
  4  5  1  0
  5  6  1  0
  6  7  1  0
  6  8  1  0
  8  9  1  0
  6  2  1  0
  8  3  1  0
  8  4  1  0
  1 10  1  0
  1 11  1  0
  1 12  1  0
  2 13  1  0
  3 14  1  0
  4 15  1  0
  7 16  1  0
  7 17  1  0
  7 18  1  0
  9 19  1  0
M  END
$$$$
