
     RDKit          3D

 19 21  0  0  0  0  0  0  0  0999 V2000
    2.6015    3.9620    0.3876 C   0  0  0  0  0  0  0  0  0  0  0  0
    1.5151    4.8333    0.7226 O   0  0  0  0  0  0  0  0  0  0  0  0
    1.2050    3.5213    0.2673 C   0  0  0  0  0  0  0  0  0  0  0  0
    0.5004    3.3628   -1.0766 C   0  0  0  0  0  0  0  0  0  0  0  0
    0.0958    1.8787   -1.0828 C   0  0  0  0  0  0  0  0  0  0  0  0
   -0.2898    1.6180    0.3699 C   0  0  0  0  0  0  0  0  0  0  0  0
   -0.9179    0.3805    0.8355 C   0  0  0  0  0  0  0  0  0  0  0  0
   -1.6952    1.5686    0.6569 O   0  0  0  0  0  0  0  0  0  0  0  0
    0.5563    2.5392    1.2507 C   0  0  0  0  0  0  0  0  0  0  0  0
    3.1639    4.2390   -0.5039 H   0  0  0  0  0  0  0  0  0  0  0  0
    3.2054    3.6256    1.2302 H   0  0  0  0  0  0  0  0  0  0  0  0
   -0.3947    3.9961   -1.0807 H   0  0  0  0  0  0  0  0  0  0  0  0
    1.1243    3.6592   -1.9228 H   0  0  0  0  0  0  0  0  0  0  0  0
   -0.7273    1.6428   -1.7604 H   0  0  0  0  0  0  0  0  0  0  0  0
    0.9551    1.2535   -1.3564 H   0  0  0  0  0  0  0  0  0  0  0  0
   -1.1218   -0.4240    0.1286 H   0  0  0  0  0  0  0  0  0  0  0  0
   -0.7834    0.0600    1.8685 H   0  0  0  0  0  0  0  0  0  0  0  0
   -0.0883    3.0728    1.9546 H   0  0  0  0  0  0  0  0  0  0  0  0
    1.3026    1.9880    1.8304 H   0  0  0  0  0  0  0  0  0  0  0  0
  1  2  1  0
  2  3  1  0
  3  4  1  0
  4  5  1  0
  5  6  1  0
  6  7  1  0
  7  8  1  0
  6  9  1  0
  3  1  1  0
  9  3  1  0
  8  6  1  0
  1 10  1  0
  1 11  1  0
  4 12  1  0
  4 13  1  0
  5 14  1  0
  5 15  1  0
  7 16  1  0
  7 17  1  0
  9 18  1  0
  9 19  1  0
M  END
$$$$
