
     RDKit          3D

 19 21  0  0  0  0  0  0  0  0999 V2000
    2.3817   -1.7948   -1.9705 C   0  0  0  0  0  0  0  0  0  0  0  0
    3.3014   -0.9033   -1.3452 O   0  0  0  0  0  0  0  0  0  0  0  0
    2.0129   -1.0803   -0.7392 C   0  0  0  0  0  0  0  0  0  0  0  0
    1.1058    0.1139   -0.7735 C   0  0  0  0  0  0  0  0  0  0  0  0
   -0.3864    0.0573   -0.3490 C   0  0  0  0  0  0  0  0  0  0  0  0
   -0.3718   -0.5309    1.0789 C   0  0  0  0  0  0  0  0  0  0  0  0
    0.7783    0.3615    1.6477 C   0  0  0  0  0  0  0  0  0  0  0  0
    1.0508    1.1718    0.3629 C   0  0  0  0  0  0  0  0  0  0  0  0
   -0.3062    1.4908   -0.0800 O   0  0  0  0  0  0  0  0  0  0  0  0
    1.9788   -1.4580   -2.9251 H   0  0  0  0  0  0  0  0  0  0  0  0
    2.6443   -2.8509   -1.9246 H   0  0  0  0  0  0  0  0  0  0  0  0
    2.0489   -1.6466    0.1911 H   0  0  0  0  0  0  0  0  0  0  0  0
    1.1937    0.6255   -1.7341 H   0  0  0  0  0  0  0  0  0  0  0  0
   -1.1878   -0.2269   -1.0312 H   0  0  0  0  0  0  0  0  0  0  0  0
   -1.3259   -0.3580    1.5799 H   0  0  0  0  0  0  0  0  0  0  0  0
   -0.1560   -1.6026    1.1053 H   0  0  0  0  0  0  0  0  0  0  0  0
    0.4440    1.0140    2.4562 H   0  0  0  0  0  0  0  0  0  0  0  0
    1.6467   -0.2039    1.9964 H   0  0  0  0  0  0  0  0  0  0  0  0
    1.7217    2.0290    0.4059 H   0  0  0  0  0  0  0  0  0  0  0  0
  1  2  1  0
  2  3  1  0
  3  4  1  0
  4  5  1  0
  5  6  1  0
  6  7  1  0
  7  8  1  0
  8  9  1  0
  3  1  1  0
  8  4  1  0
  9  5  1  0
  1 10  1  0
  1 11  1  0
  3 12  1  0
  4 13  1  0
  5 14  1  0
  6 15  1  0
  6 16  1  0
  7 17  1  0
  7 18  1  0
  8 19  1  0
M  END
$$$$
