gdb 3582	2.4665839	1.2893846	1.0770868	1.5274	76.81	-0.2491	0.03033	0.27943	1194.4715	0.153687	-422.515573	-422.505629	-422.504685	-422.549699	37.402
 OpenBabel02181911413D

 19 19  0  0  1  0  0  0  0  0999 V2000
    1.0548   -0.4018    1.0001 C   0  0  0  0  0  0  0  0  0  0  0  0
    0.8867    0.0231   -0.4549 C   0  0  1  0  0  0  0  0  0  0  0  0
    1.4781    1.4297   -0.7935 C   0  0  1  0  0  0  0  0  0  0  0  0
    1.5681    2.4125    0.2058 O   0  0  0  0  0  0  0  0  0  0  0  0
    2.7668    0.7507   -1.3226 C   0  0  0  0  0  0  0  0  0  0  0  0
    1.9676   -0.5908   -1.4342 C   0  0  1  0  0  0  0  0  0  0  0  0
    2.6184   -1.7855   -1.0537 O   0  0  0  0  0  0  0  0  0  0  0  0
    1.4215   -0.7932   -2.7702 C   0  0  0  0  0  0  0  0  0  0  0  0
    0.9464   -0.9137   -3.8673 C   0  0  0  0  0  0  0  0  0  0  0  0
    0.8085   -1.4594    1.1275 H   0  0  0  0  0  0  0  0  0  0  0  0
    2.0772   -0.2567    1.3743 H   0  0  0  0  0  0  0  0  0  0  0  0
    0.3917    0.1837    1.6437 H   0  0  0  0  0  0  0  0  0  0  0  0
   -0.1470   -0.1382   -0.7674 H   0  0  0  0  0  0  0  0  0  0  0  0
    0.9194    1.8936   -1.6091 H   0  0  0  0  0  0  0  0  0  0  0  0
    2.0962    2.0641    0.9311 H   0  0  0  0  0  0  0  0  0  0  0  0
    3.2404    1.1415   -2.2238 H   0  0  0  0  0  0  0  0  0  0  0  0
    3.5227    0.6685   -0.5321 H   0  0  0  0  0  0  0  0  0  0  0  0
    3.0348   -1.6344   -0.1992 H   0  0  0  0  0  0  0  0  0  0  0  0
    0.5342   -1.0355   -4.8384 H   0  0  0  0  0  0  0  0  0  0  0  0
  1 10  1  0  0  0  0
  1 11  1  0  0  0  0
  1 12  1  0  0  0  0
  2 13  1  6  0  0  0
  2  1  1  0  0  0  0
  3 14  1  6  0  0  0
  3  2  1  0  0  0  0
  3  4  1  0  0  0  0
  4 15  1  0  0  0  0
  5  3  1  0  0  0  0
  5 17  1  0  0  0  0
  6  8  1  6  0  0  0
  6  5  1  0  0  0  0
  6  7  1  0  0  0  0
  6  2  1  0  0  0  0
  7 18  1  0  0  0  0
  9  8  3  0  0  0  0
 16  5  1  0  0  0  0
 19  9  1  0  0  0  0
M TOR 0 0 1 2 3
M TOR 1 0 1 2 4
M TOR 2 0 1 2 13
M TOR 3 0 1 5 4
M TOR 4 0 1 5 6
M TOR 5 0 1 5 7
M TOR 6 1 2 3 14
M TOR 7 1 2 4 5
M TOR 8 1 2 4 15
M TOR 9 1 2 4 16
M TOR 10 1 5 4 15
M TOR 11 1 5 4 16
M TOR 12 1 5 6 17
M TOR 13 1 5 7 8
M TOR 14 2 1 0 9
M TOR 15 2 1 0 10
M TOR 16 2 1 0 11
M TOR 17 2 1 5 6
M TOR 18 2 1 5 7
M TOR 19 2 4 5 6
M TOR 20 2 4 5 7
M TOR 21 3 2 1 5
M TOR 22 3 2 1 12
M TOR 23 3 2 4 5
M TOR 24 3 2 4 15
M TOR 25 3 2 4 16
M TOR 26 4 2 1 12
M TOR 27 4 2 3 14
M TOR 28 4 5 1 12
M TOR 29 4 5 6 17
M TOR 30 4 5 7 8
M TOR 31 5 1 0 9
M TOR 32 5 1 0 10
M TOR 33 5 1 0 11
M TOR 34 5 1 2 13
M TOR 35 5 4 2 13
M TOR 36 5 7 8 18
M TOR 37 6 5 1 12
M TOR 38 6 5 4 15
M TOR 39 6 5 4 16
M TOR 40 6 5 7 8
M TOR 41 7 5 1 12
M TOR 42 7 5 4 15
M TOR 43 7 5 4 16
M TOR 44 7 5 6 17
M  END
$$$$
