
     RDKit          3D

 19 20  0  0  0  0  0  0  0  0999 V2000
    0.1018    1.2349   -3.2502 C   0  0  0  0  0  0  0  0  0  0  0  0
    0.3371    0.0532   -2.3247 C   0  0  0  0  0  0  0  0  0  0  0  0
    1.4660   -0.9135   -2.7683 C   0  0  0  0  0  0  0  0  0  0  0  0
    0.5347   -1.9829   -3.0359 O   0  0  0  0  0  0  0  0  0  0  0  0
   -0.5602   -1.2018   -2.4890 C   0  0  0  0  0  0  0  0  0  0  0  0
   -0.9285   -1.5987   -1.0853 C   0  0  0  0  0  0  0  0  0  0  0  0
   -0.4663   -0.7255   -0.1899 C   0  0  0  0  0  0  0  0  0  0  0  0
    0.3005    0.4209   -0.8135 C   0  0  0  0  0  0  0  0  0  0  0  0
    1.5676    0.6576   -0.2121 O   0  0  0  0  0  0  0  0  0  0  0  0
   -0.8539    1.7237   -3.0294 H   0  0  0  0  0  0  0  0  0  0  0  0
    0.8941    1.9822   -3.1285 H   0  0  0  0  0  0  0  0  0  0  0  0
    0.0869    0.9251   -4.3002 H   0  0  0  0  0  0  0  0  0  0  0  0
    2.0095   -0.6134   -3.6716 H   0  0  0  0  0  0  0  0  0  0  0  0
    2.1996   -1.1864   -1.9982 H   0  0  0  0  0  0  0  0  0  0  0  0
   -1.4052   -1.1649   -3.1862 H   0  0  0  0  0  0  0  0  0  0  0  0
   -1.4875   -2.5007   -0.8614 H   0  0  0  0  0  0  0  0  0  0  0  0
   -0.5915   -0.7919    0.8862 H   0  0  0  0  0  0  0  0  0  0  0  0
   -0.2318    1.3714   -0.6789 H   0  0  0  0  0  0  0  0  0  0  0  0
    2.0102   -0.1924   -0.1136 H   0  0  0  0  0  0  0  0  0  0  0  0
  1  2  1  0
  2  3  1  0
  3  4  1  0
  4  5  1  0
  5  6  1  0
  6  7  2  0
  7  8  1  0
  8  9  1  0
  5  2  1  0
  8  2  1  0
  1 10  1  0
  1 11  1  0
  1 12  1  0
  3 13  1  0
  3 14  1  0
  5 15  1  0
  6 16  1  0
  7 17  1  0
  8 18  1  0
  9 19  1  0
M  END
$$$$
