gdb 1210	2.3473362	1.2967307	1.0960999	1.6461	77.21	-0.23761	-0.02723	0.21037999999999998	1205.9637	0.152076	-422.55106	-422.540466	-422.539522	-422.586628	38.622
 OpenBabel02181911403D

 19 18  0  0  0  0  0  0  0  0999 V2000
   -3.6034    2.6466   -0.7295 C   0  0  0  0  0  0  0  0  0  0  0  0
   -2.0806    2.5739   -0.9310 C   0  0  0  0  0  0  0  0  0  0  0  0
   -1.4309    3.9525   -0.7659 C   0  0  0  0  0  0  0  0  0  0  0  0
   -1.7509    2.1378   -2.2431 O   0  0  0  0  0  0  0  0  0  0  0  0
   -1.4911    1.6334    0.1470 C   0  0  0  0  0  0  0  0  0  0  0  0
   -1.5704    1.8933    1.3214 O   0  0  0  0  0  0  0  0  0  0  0  0
   -0.7779    0.3515   -0.3352 C   0  0  0  0  0  0  0  0  0  0  0  0
   -1.6870   -0.5472   -1.0359 C   0  0  0  0  0  0  0  0  0  0  0  0
   -2.4704   -1.2623   -1.6044 C   0  0  0  0  0  0  0  0  0  0  0  0
   -3.8400    2.9792    0.2838 H   0  0  0  0  0  0  0  0  0  0  0  0
   -4.0335    3.3466   -1.4513 H   0  0  0  0  0  0  0  0  0  0  0  0
   -4.0626    1.6638   -0.8808 H   0  0  0  0  0  0  0  0  0  0  0  0
   -1.5696    4.3151    0.2540 H   0  0  0  0  0  0  0  0  0  0  0  0
   -0.3596    3.8962   -0.9794 H   0  0  0  0  0  0  0  0  0  0  0  0
   -1.8823    4.6557   -1.4707 H   0  0  0  0  0  0  0  0  0  0  0  0
   -2.2265    1.3171   -2.4213 H   0  0  0  0  0  0  0  0  0  0  0  0
    0.0365    0.6442   -1.0083 H   0  0  0  0  0  0  0  0  0  0  0  0
   -0.3531   -0.1333    0.5478 H   0  0  0  0  0  0  0  0  0  0  0  0
   -3.1421   -1.9207   -2.0983 H   0  0  0  0  0  0  0  0  0  0  0  0
  1 10  1  0  0  0  0
  2  3  1  0  0  0  0
  2  1  1  0  0  0  0
  2  5  1  0  0  0  0
  3 13  1  0  0  0  0
  4  2  1  0  0  0  0
  5  6  2  0  0  0  0
  7  5  1  0  0  0  0
  7 18  1  0  0  0  0
  8  7  1  0  0  0  0
  9  8  3  0  0  0  0
 11  1  1  0  0  0  0
 12  1  1  0  0  0  0
 14  3  1  0  0  0  0
 15  3  1  0  0  0  0
 16  4  1  0  0  0  0
 17  7  1  0  0  0  0
 19  9  1  0  0  0  0
M TOR 0 0 1 2 12
M TOR 1 0 1 2 13
M TOR 2 0 1 2 14
M TOR 3 0 1 3 15
M TOR 4 0 1 4 5
M TOR 5 0 1 4 6
M TOR 6 1 4 6 7
M TOR 7 1 4 6 16
M TOR 8 1 4 6 17
M TOR 9 2 1 0 9
M TOR 10 2 1 0 10
M TOR 11 2 1 0 11
M TOR 12 2 1 3 15
M TOR 13 2 1 4 5
M TOR 14 2 1 4 6
M TOR 15 3 1 0 9
M TOR 16 3 1 0 10
M TOR 17 3 1 0 11
M TOR 18 3 1 2 12
M TOR 19 3 1 2 13
M TOR 20 3 1 2 14
M TOR 21 3 1 4 5
M TOR 22 3 1 4 6
M TOR 23 4 1 0 9
M TOR 24 4 1 0 10
M TOR 25 4 1 0 11
M TOR 26 4 1 2 12
M TOR 27 4 1 2 13
M TOR 28 4 1 2 14
M TOR 29 4 1 3 15
M TOR 30 4 6 7 8
M TOR 31 5 4 6 7
M TOR 32 5 4 6 16
M TOR 33 5 4 6 17
M TOR 34 6 7 8 18
M TOR 35 8 7 6 16
M TOR 36 8 7 6 17
M  END
$$$$
