gdb 1011	3.1325289	0.854167	0.8161532	2.528	83.46	-0.22257	0.02658	0.24914999999999998	1536.1199	0.153223	-422.512847	-422.501948	-422.501004	-422.550124	37.922
 OpenBabel02181911403D

 19 19  0  0  1  0  0  0  0  0999 V2000
    1.4285    0.0022    0.0004 C   0  0  0  0  0  0  0  0  0  0  0  0
   -0.0265   -0.0108   -0.0064 C   0  0  0  0  0  0  0  0  0  0  0  0
   -1.2327   -0.0089   -0.0156 C   0  0  0  0  0  0  0  0  0  0  0  0
   -2.6646   -0.0441   -0.0147 C   0  0  1  0  0  0  0  0  0  0  0  0
   -3.2702   -0.2925    1.2438 O   0  0  0  0  0  0  0  0  0  0  0  0
   -3.4843    0.8583   -0.9300 C   0  0  2  0  0  0  0  0  0  0  0  0
   -4.7289    1.5562   -0.4311 C   0  0  0  0  0  0  0  0  0  0  0  0
   -3.4576   -0.6346   -1.1818 C   0  0  2  0  0  0  0  0  0  0  0  0
   -4.5528   -1.4240   -0.8530 O   0  0  0  0  0  0  0  0  0  0  0  0
    1.8160    0.3795    0.9533 H   0  0  0  0  0  0  0  0  0  0  0  0
    1.8443   -0.9994   -0.1564 H   0  0  0  0  0  0  0  0  0  0  0  0
    1.8178    0.6512   -0.7919 H   0  0  0  0  0  0  0  0  0  0  0  0
   -2.7229   -0.9477    1.6915 H   0  0  0  0  0  0  0  0  0  0  0  0
   -2.8701    1.4434   -1.6088 H   0  0  0  0  0  0  0  0  0  0  0  0
   -5.3564    0.8864    0.1583 H   0  0  0  0  0  0  0  0  0  0  0  0
   -4.4759    2.4199    0.1912 H   0  0  0  0  0  0  0  0  0  0  0  0
   -5.3236    1.9098   -1.2794 H   0  0  0  0  0  0  0  0  0  0  0  0
   -2.9158   -1.0132   -2.0427 H   0  0  0  0  0  0  0  0  0  0  0  0
   -4.6060   -1.4114    0.1142 H   0  0  0  0  0  0  0  0  0  0  0  0
  1 10  1  0  0  0  0
  2  1  1  0  0  0  0
  3  2  3  0  0  0  0
  4  3  1  6  0  0  0
  4  5  1  0  0  0  0
  5 13  1  0  0  0  0
  6 14  1  6  0  0  0
  6  7  1  0  0  0  0
  6  4  1  0  0  0  0
  7 15  1  0  0  0  0
  7 16  1  0  0  0  0
  8 18  1  6  0  0  0
  8  6  1  0  0  0  0
  8  9  1  0  0  0  0
  8  4  1  0  0  0  0
  9 19  1  0  0  0  0
 11  1  1  0  0  0  0
 12  1  1  0  0  0  0
 17  7  1  0  0  0  0
M TOR 0 0 1 2 3
M TOR 1 1 2 3 4
M TOR 2 1 2 3 5
M TOR 3 1 2 3 7
M TOR 4 2 1 0 9
M TOR 5 2 1 0 10
M TOR 6 2 1 0 11
M TOR 7 2 3 4 12
M TOR 8 2 3 5 6
M TOR 9 2 3 5 7
M TOR 10 2 3 5 13
M TOR 11 2 3 7 8
M TOR 12 2 3 7 17
M TOR 13 3 5 6 14
M TOR 14 3 5 6 15
M TOR 15 3 5 6 16
M TOR 16 3 5 7 8
M TOR 17 3 5 7 17
M TOR 18 3 7 5 6
M TOR 19 3 7 5 13
M TOR 20 3 7 8 18
M TOR 21 4 3 5 6
M TOR 22 4 3 5 7
M TOR 23 4 3 5 13
M TOR 24 4 3 7 8
M TOR 25 4 3 7 17
M TOR 26 5 3 4 12
M TOR 27 5 7 8 18
M TOR 28 6 5 7 8
M TOR 29 6 5 7 17
M TOR 30 7 3 4 12
M TOR 31 7 5 6 14
M TOR 32 7 5 6 15
M TOR 33 7 5 6 16
M TOR 34 8 7 5 13
M  END
$$$$
