gdb 1401	2.3981938	1.4982333	1.2697154	1.9284	76.03	-0.23366	-0.027	0.20666	1091.2949	0.153727	-422.5523	-422.542668	-422.541724	-422.587224	35.272
 OpenBabel02181911403D

 19 20  0  0  1  0  0  0  0  0999 V2000
   -0.9901   -1.9062    1.4281 C   0  0  0  0  0  0  0  0  0  0  0  0
   -1.0972   -1.1656    0.0964 C   0  0  2  0  0  0  0  0  0  0  0  0
   -1.2048   -2.0566   -0.9948 O   0  0  0  0  0  0  0  0  0  0  0  0
   -0.0264   -0.0567   -0.0878 C   0  0  0  0  0  0  0  0  0  0  0  0
    1.1261   -0.0997   -0.4100 O   0  0  0  0  0  0  0  0  0  0  0  0
   -1.0516    1.0673    0.1364 C   0  0  0  0  0  0  0  0  0  0  0  0
   -2.1378   -0.0224    0.0551 C   0  0  0  0  0  0  0  0  0  0  0  0
   -3.5139   -0.0187    0.6483 C   0  0  0  0  0  0  0  0  0  0  0  0
   -3.3288   -0.0043   -0.8522 C   0  0  0  0  0  0  0  0  0  0  0  0
   -1.8599   -2.5573    1.5584 H   0  0  0  0  0  0  0  0  0  0  0  0
   -0.0865   -2.5250    1.4473 H   0  0  0  0  0  0  0  0  0  0  0  0
   -0.9456   -1.2131    2.2741 H   0  0  0  0  0  0  0  0  0  0  0  0
   -0.3414   -2.4678   -1.1202 H   0  0  0  0  0  0  0  0  0  0  0  0
   -0.9474    1.5418    1.1191 H   0  0  0  0  0  0  0  0  0  0  0  0
   -1.0592    1.8484   -0.6293 H   0  0  0  0  0  0  0  0  0  0  0  0
   -3.8771   -0.9325    1.1081 H   0  0  0  0  0  0  0  0  0  0  0  0
   -3.8554    0.8897    1.1344 H   0  0  0  0  0  0  0  0  0  0  0  0
   -3.5431   -0.9124   -1.4042 H   0  0  0  0  0  0  0  0  0  0  0  0
   -3.5462    0.9147   -1.3871 H   0  0  0  0  0  0  0  0  0  0  0  0
  1 11  1  0  0  0  0
  1 10  1  0  0  0  0
  1 12  1  0  0  0  0
  2  3  1  6  0  0  0
  2  1  1  0  0  0  0
  4  2  1  0  0  0  0
  4  6  1  0  0  0  0
  5  4  2  0  0  0  0
  6 14  1  0  0  0  0
  7  2  1  0  0  0  0
  7  6  1  0  0  0  0
  7  8  1  0  0  0  0
  8 16  1  0  0  0  0
  8 17  1  0  0  0  0
  9  7  1  0  0  0  0
  9  8  1  0  0  0  0
 13  3  1  0  0  0  0
 15  6  1  0  0  0  0
 18  9  1  0  0  0  0
 19  9  1  0  0  0  0
M TOR 0 0 1 2 12
M TOR 1 0 1 3 4
M TOR 2 0 1 3 5
M TOR 3 0 1 6 5
M TOR 4 0 1 6 7
M TOR 5 0 1 6 8
M TOR 6 1 3 5 6
M TOR 7 1 3 5 13
M TOR 8 1 3 5 14
M TOR 9 1 6 5 13
M TOR 10 1 6 5 14
M TOR 11 1 6 7 8
M TOR 12 1 6 7 15
M TOR 13 1 6 7 16
M TOR 14 1 6 8 17
M TOR 15 1 6 8 18
M TOR 16 2 1 0 9
M TOR 17 2 1 0 10
M TOR 18 2 1 0 11
M TOR 19 2 1 3 4
M TOR 20 2 1 3 5
M TOR 21 2 1 6 5
M TOR 22 2 1 6 7
M TOR 23 2 1 6 8
M TOR 24 3 1 0 9
M TOR 25 3 1 0 10
M TOR 26 3 1 0 11
M TOR 27 3 1 2 12
M TOR 28 3 1 6 7
M TOR 29 3 1 6 8
M TOR 30 3 5 6 7
M TOR 31 3 5 6 8
M TOR 32 4 3 1 6
M TOR 33 4 3 5 6
M TOR 34 4 3 5 13
M TOR 35 4 3 5 14
M TOR 36 5 6 7 8
M TOR 37 5 6 7 15
M TOR 38 5 6 7 16
M TOR 39 5 6 8 17
M TOR 40 5 6 8 18
M TOR 41 6 1 0 9
M TOR 42 6 1 0 10
M TOR 43 6 1 0 11
M TOR 44 6 1 2 12
M TOR 45 6 7 8 17
M TOR 46 6 7 8 18
M TOR 47 6 8 7 15
M TOR 48 6 8 7 16
M TOR 49 7 6 5 13
M TOR 50 7 6 5 14
M TOR 51 8 6 5 13
M TOR 52 8 6 5 14
M  END
$$$$
