
     RDKit          3D

 19 21  0  0  0  0  0  0  0  0999 V2000
    0.7015    0.4769    0.8243 O   0  0  0  0  0  0  0  0  0  0  0  0
   -0.6751    0.7202    0.8843 C   0  0  0  0  0  0  0  0  0  0  0  0
   -1.6914   -0.3320    0.3828 C   0  0  0  0  0  0  0  0  0  0  0  0
   -2.6807    0.2892    1.3977 C   0  0  0  0  0  0  0  0  0  0  0  0
   -3.2552    1.4996    0.8887 O   0  0  0  0  0  0  0  0  0  0  0  0
   -2.2457    2.5057    1.0837 C   0  0  0  0  0  0  0  0  0  0  0  0
   -1.7829    2.2537    2.5299 C   0  0  0  0  0  0  0  0  0  0  0  0
   -1.4732    0.7874    2.2584 C   0  0  0  0  0  0  0  0  0  0  0  0
   -1.0042    2.0980    0.2667 C   0  0  0  0  0  0  0  0  0  0  0  0
    0.8620   -0.4214    1.1321 H   0  0  0  0  0  0  0  0  0  0  0  0
   -1.9728   -0.3331   -0.6734 H   0  0  0  0  0  0  0  0  0  0  0  0
   -1.4070   -1.3446    0.6950 H   0  0  0  0  0  0  0  0  0  0  0  0
   -3.4729   -0.3285    1.8216 H   0  0  0  0  0  0  0  0  0  0  0  0
   -2.6804    3.4763    0.8456 H   0  0  0  0  0  0  0  0  0  0  0  0
   -0.9052    2.8418    2.8113 H   0  0  0  0  0  0  0  0  0  0  0  0
   -2.5823    2.4107    3.2589 H   0  0  0  0  0  0  0  0  0  0  0  0
   -1.1314    0.1387    3.0635 H   0  0  0  0  0  0  0  0  0  0  0  0
   -1.1988    2.0415   -0.8070 H   0  0  0  0  0  0  0  0  0  0  0  0
   -0.1732    2.7887    0.4392 H   0  0  0  0  0  0  0  0  0  0  0  0
  1  2  1  0
  2  3  1  0
  3  4  1  0
  4  5  1  0
  5  6  1  0
  6  7  1  0
  7  8  1  0
  6  9  1  0
  8  2  1  0
  9  2  1  0
  8  4  1  0
  1 10  1  0
  3 11  1  0
  3 12  1  0
  4 13  1  0
  6 14  1  0
  7 15  1  0
  7 16  1  0
  8 17  1  0
  9 18  1  0
  9 19  1  0
M  END
$$$$
