
     RDKit          3D

 19 20  0  0  0  0  0  0  0  0999 V2000
    0.2166   -0.4208   -0.3255 C   0  0  0  0  0  0  0  0  0  0  0  0
    0.8675    0.7055    0.4488 C   0  0  0  0  0  0  0  0  0  0  0  0
    2.2184    0.9798   -0.0065 O   0  0  0  0  0  0  0  0  0  0  0  0
    2.7540    0.8446    1.3350 C   0  0  0  0  0  0  0  0  0  0  0  0
    3.0490    2.1525    2.0114 C   0  0  0  0  0  0  0  0  0  0  0  0
    2.0926    2.4852    2.8813 C   0  0  0  0  0  0  0  0  0  0  0  0
    0.9871    1.4602    2.9755 C   0  0  0  0  0  0  0  0  0  0  0  0
    1.3628    0.4232    1.8944 C   0  0  0  0  0  0  0  0  0  0  0  0
    1.1530   -0.9168    2.2605 O   0  0  0  0  0  0  0  0  0  0  0  0
   -0.7984   -0.6041    0.0416 H   0  0  0  0  0  0  0  0  0  0  0  0
    0.1568   -0.1471   -1.3836 H   0  0  0  0  0  0  0  0  0  0  0  0
    0.7925   -1.3426   -0.2290 H   0  0  0  0  0  0  0  0  0  0  0  0
    0.2544    1.6161    0.3898 H   0  0  0  0  0  0  0  0  0  0  0  0
    3.5707    0.1137    1.3580 H   0  0  0  0  0  0  0  0  0  0  0  0
    3.9286    2.7459    1.7888 H   0  0  0  0  0  0  0  0  0  0  0  0
    2.0851    3.3926    3.4768 H   0  0  0  0  0  0  0  0  0  0  0  0
    0.9487    0.9902    3.9693 H   0  0  0  0  0  0  0  0  0  0  0  0
   -0.0065    1.8955    2.8104 H   0  0  0  0  0  0  0  0  0  0  0  0
    1.5877   -1.0719    3.1057 H   0  0  0  0  0  0  0  0  0  0  0  0
  1  2  1  0
  2  3  1  0
  3  4  1  0
  4  5  1  0
  5  6  2  0
  6  7  1  0
  7  8  1  0
  8  9  1  0
  8  2  1  0
  8  4  1  0
  1 10  1  0
  1 11  1  0
  1 12  1  0
  2 13  1  0
  4 14  1  0
  5 15  1  0
  6 16  1  0
  7 17  1  0
  7 18  1  0
  9 19  1  0
M  END
$$$$
