gdb 2556	2.4364681	1.8233194	1.4284215	1.7637	75.36	-0.23455	0.01278	0.24733	991.1888	0.157364	-422.566379	-422.558267	-422.557323	-422.598399	31.992
 OpenBabel02181911413D

 19 16  0  0  1  0  0  0  0  0999 V2000
    1.2280    0.6591   -0.4867 C   0  0  0  0  0  0  0  0  0  0  0  0
   -0.1266    0.1257   -0.1643 C   0  0  0  0  0  3  0  0  0  0  0  0
   -0.5260   -1.1161    0.1413 C   0  0  0  0  0  0  0  0  0  0  0  0
   -1.9950   -1.0161    0.5125 C   0  0  2  0  0  0  0  0  0  0  0  0
   -2.4788    0.0693   -0.4602 C   0  0  0  0  0  3  0  0  0  0  0  0
   -1.3562    1.0236    8.7425 C   0  0  0  0  0 15  0  0  0  0  0  0
   -1.3456    2.2777   -0.6255 O   0  0  0  0  0  1  0  0  0  0  0  0
   -1.6721    1.0203    1.5343 C   0  0  0  0  0  3  0  0  0  0  0  0
   -2.0818   -0.3191    1.7998 O   0  0  0  0  0  0  0  0  0  0  0  0
    1.5804    1.3580    0.2849 H   0  0  0  0  0  0  0  0  0  0  0  0
    1.9661   -0.1429   -0.5670 H   0  0  0  0  0  0  0  0  0  0  0  0
    1.2141    1.2157   -1.4312 H   0  0  0  0  0  0  0  0  0  0  0  0
    0.0906   -2.0006    0.2442 H   0  0  0  0  0  0  0  0  0  0  0  0
   -2.5644   -1.9389    0.6003 H   0  0  0  0  0  0  0  0  0  0  0  0
   -2.3881   -0.2036   -1.5119 H   0  0  0  0  0  0  0  0  0  0  0  0
   -3.4841    0.4355   -0.2359 H   0  0  0  0  0  0  0  0  0  0  0  0
   -0.6788    2.8280   -0.2013 H   0  0  0  0  0  0  0  0  0  0  0  0
   -0.7988    1.2849    2.1457 H   0  0  0  0  0  0  0  0  0  0  0  0
   -2.4881    1.7215    1.7522 H   0  0  0  0  0  0  0  0  0  0  0  0
  1  2  1  0  0  0  0
  1 10  1  0  0  0  0
  2  3  2  0  0  0  0
  3 13  1  0  0  0  0
  3  4  1  0  0  0  0
  4 14  1  6  0  0  0
  4  9  1  0  0  0  0
  5 16  1  0  0  0  0
  5  4  1  0  0  0  0
  7 17  1  0  0  0  0
  8 19  1  0  0  0  0
  8  9  1  0  0  0  0
  8 18  1  0  0  0  0
 11  1  1  0  0  0  0
 12  1  1  0  0  0  0
 15  5  1  0  0  0  0
M TOR 0 0 1 2 3
M TOR 1 0 1 2 12
M TOR 2 1 2 3 4
M TOR 3 1 2 3 8
M TOR 4 1 2 3 13
M TOR 5 2 1 0 9
M TOR 6 2 1 0 10
M TOR 7 2 1 0 11
M TOR 8 2 3 4 14
M TOR 9 2 3 4 15
M TOR 10 2 3 8 7
M TOR 11 3 8 7 17
M TOR 12 3 8 7 18
M TOR 13 4 3 2 12
M TOR 14 4 3 8 7
M TOR 15 7 8 3 13
M TOR 16 8 3 2 12
M TOR 17 8 3 4 14
M TOR 18 8 3 4 15
M  END
$$$$
