
     RDKit          3D

 19 21  0  0  0  0  0  0  0  0999 V2000
    0.7571    4.0325    0.3699 C   0  0  0  0  0  0  0  0  0  0  0  0
    1.5538    2.7498    0.3484 C   0  0  0  0  0  0  0  0  0  0  0  0
    2.8803    2.6686    0.9782 C   0  0  0  0  0  0  0  0  0  0  0  0
    2.7521    2.7559   -0.4435 O   0  0  0  0  0  0  0  0  0  0  0  0
    0.7539    1.4963    0.1898 C   0  0  0  0  0  0  0  0  0  0  0  0
   -0.2870    1.1273   -0.9063 C   0  0  0  0  0  0  0  0  0  0  0  0
   -0.3525    0.0901    0.2355 C   0  0  0  0  0  0  0  0  0  0  0  0
    1.1915    0.0108    0.2557 C   0  0  0  0  0  0  0  0  0  0  0  0
   -0.2857    1.2007    1.2172 O   0  0  0  0  0  0  0  0  0  0  0  0
    0.0214    4.0046    1.1789 H   0  0  0  0  0  0  0  0  0  0  0  0
    1.4158    4.8922    0.5125 H   0  0  0  0  0  0  0  0  0  0  0  0
    0.2178    4.1650   -0.5736 H   0  0  0  0  0  0  0  0  0  0  0  0
    3.2878    3.5534    1.4652 H   0  0  0  0  0  0  0  0  0  0  0  0
    3.2477    1.7171    1.3574 H   0  0  0  0  0  0  0  0  0  0  0  0
   -1.1477    1.7933   -0.9747 H   0  0  0  0  0  0  0  0  0  0  0  0
    0.0898    0.8058   -1.8801 H   0  0  0  0  0  0  0  0  0  0  0  0
   -1.0864   -0.6937    0.4185 H   0  0  0  0  0  0  0  0  0  0  0  0
    1.6224   -0.3035    1.2070 H   0  0  0  0  0  0  0  0  0  0  0  0
    1.7013   -0.4121   -0.6124 H   0  0  0  0  0  0  0  0  0  0  0  0
  1  2  1  0
  2  3  1  0
  3  4  1  0
  2  5  1  0
  5  6  1  0
  6  7  1  0
  7  8  1  0
  7  9  1  0
  4  2  1  0
  8  5  1  0
  9  5  1  0
  1 10  1  0
  1 11  1  0
  1 12  1  0
  3 13  1  0
  3 14  1  0
  6 15  1  0
  6 16  1  0
  7 17  1  0
  8 18  1  0
  8 19  1  0
M  END
$$$$
