
     RDKit          3D

 19 21  0  0  0  0  0  0  0  0999 V2000
    0.4695   -0.4327   -0.4874 C   0  0  0  0  0  0  0  0  0  0  0  0
    0.7798    0.6771    0.5016 C   0  0  0  0  0  0  0  0  0  0  0  0
    1.9471    1.4674    0.1037 O   0  0  0  0  0  0  0  0  0  0  0  0
    2.8090    0.8613    1.1012 C   0  0  0  0  0  0  0  0  0  0  0  0
    3.0632    1.7641    2.3356 C   0  0  0  0  0  0  0  0  0  0  0  0
    1.7617    1.2049    2.9781 C   0  0  0  0  0  0  0  0  0  0  0  0
    1.8499   -0.1546    3.7211 C   0  0  0  0  0  0  0  0  0  0  0  0
    1.4373   -0.8976    2.5335 O   0  0  0  0  0  0  0  0  0  0  0  0
    1.5271    0.2802    1.7633 C   0  0  0  0  0  0  0  0  0  0  0  0
   -0.3866   -1.0209   -0.1410 H   0  0  0  0  0  0  0  0  0  0  0  0
    0.2252   -0.0045   -1.4640 H   0  0  0  0  0  0  0  0  0  0  0  0
    1.3237   -1.1053   -0.6071 H   0  0  0  0  0  0  0  0  0  0  0  0
   -0.0940    1.3249    0.6484 H   0  0  0  0  0  0  0  0  0  0  0  0
    3.6312    0.2937    0.6576 H   0  0  0  0  0  0  0  0  0  0  0  0
    3.9827    1.5417    2.8861 H   0  0  0  0  0  0  0  0  0  0  0  0
    3.0364    2.8305    2.1008 H   0  0  0  0  0  0  0  0  0  0  0  0
    1.0102    1.9007    3.3512 H   0  0  0  0  0  0  0  0  0  0  0  0
    2.8530   -0.4485    4.0532 H   0  0  0  0  0  0  0  0  0  0  0  0
    1.1371   -0.3004    4.5384 H   0  0  0  0  0  0  0  0  0  0  0  0
  1  2  1  0
  2  3  1  0
  3  4  1  0
  4  5  1  0
  5  6  1  0
  6  7  1  0
  7  8  1  0
  8  9  1  0
  9  2  1  0
  9  4  1  0
  9  6  1  0
  1 10  1  0
  1 11  1  0
  1 12  1  0
  2 13  1  0
  4 14  1  0
  5 15  1  0
  5 16  1  0
  6 17  1  0
  7 18  1  0
  7 19  1  0
M  END
$$$$
