gdb 456	5.6598613	0.804736	0.7686789	1.9726	76.68	-0.26223	0.07027	0.3325	1485.4208	0.156062	-422.49561	-422.487202	-422.486258	-422.529398	31.303
 OpenBabel02181911403D

 19 21  0  0  1  0  0  0  0  0999 V2000
    2.7201   -4.6719   -1.0395 C   0  0  0  0  0  0  0  0  0  0  0  0
    2.7056   -4.0384   -2.3196 O   0  0  0  0  0  0  0  0  0  0  0  0
    2.7100   -3.2077   -1.1549 C   0  0  1  0  0  0  0  0  0  0  0  0
    1.4793   -2.3879   -0.9017 C   0  0  1  0  0  0  0  0  0  0  0  0
    1.3646   -1.6718    0.4830 C   0  0  0  0  0  0  0  0  0  0  0  0
    0.8657   -0.4380   -0.2714 C   0  0  1  0  0  0  0  0  0  0  0  0
   -0.3233    0.3739   -0.0101 C   0  0  0  0  0  0  0  0  0  0  0  0
    1.0035    0.8973    0.1656 O   0  0  0  0  0  0  0  0  0  0  0  0
    1.3735   -0.9944   -1.6021 C   0  0  0  0  0  0  0  0  0  0  0  0
    1.8037   -5.1941   -0.7663 H   0  0  0  0  0  0  0  0  0  0  0  0
    3.6427   -5.1906   -0.7824 H   0  0  0  0  0  0  0  0  0  0  0  0
    3.6548   -2.6827   -0.9929 H   0  0  0  0  0  0  0  0  0  0  0  0
    0.5938   -2.9946   -1.1087 H   0  0  0  0  0  0  0  0  0  0  0  0
    0.7113   -2.1181    1.2359 H   0  0  0  0  0  0  0  0  0  0  0  0
    2.3482   -1.4888    0.9290 H   0  0  0  0  0  0  0  0  0  0  0  0
   -0.8847    0.7986   -0.8416 H   0  0  0  0  0  0  0  0  0  0  0  0
   -0.8909    0.2276    0.9084 H   0  0  0  0  0  0  0  0  0  0  0  0
    0.7270   -0.9130   -2.4781 H   0  0  0  0  0  0  0  0  0  0  0  0
    2.3606   -0.5892   -1.8490 H   0  0  0  0  0  0  0  0  0  0  0  0
  1 11  1  0  0  0  0
  1 10  1  0  0  0  0
  2  3  1  0  0  0  0
  2  1  1  0  0  0  0
  3  1  1  0  0  0  0
  3 12  1  1  0  0  0
  3  4  1  0  0  0  0
  4 13  1  6  0  0  0
  4  5  1  0  0  0  0
  5 15  1  0  0  0  0
  5 14  1  0  0  0  0
  6  7  1  0  0  0  0
  6  8  1  1  0  0  0
  6  5  1  0  0  0  0
  7  8  1  0  0  0  0
  7 17  1  0  0  0  0
  9  4  1  0  0  0  0
  9  6  1  0  0  0  0
 16  7  1  0  0  0  0
 18  9  1  0  0  0  0
 19  9  1  0  0  0  0
M TOR 0 0 1 2 3
M TOR 1 0 1 2 11
M TOR 2 0 2 3 4
M TOR 3 0 2 3 8
M TOR 4 0 2 3 12
M TOR 5 1 2 0 9
M TOR 6 1 2 0 10
M TOR 7 1 2 3 4
M TOR 8 1 2 3 8
M TOR 9 1 2 3 12
M TOR 10 2 3 4 5
M TOR 11 2 3 4 13
M TOR 12 2 3 4 14
M TOR 13 2 3 8 5
M TOR 14 2 3 8 17
M TOR 15 2 3 8 18
M TOR 16 3 2 0 9
M TOR 17 3 2 0 10
M TOR 18 3 4 5 6
M TOR 19 3 4 5 7
M TOR 20 3 4 5 8
M TOR 21 3 8 5 6
M TOR 22 3 8 5 7
M TOR 23 4 3 2 11
M TOR 24 4 3 8 17
M TOR 25 4 3 8 18
M TOR 26 4 5 6 7
M TOR 27 4 5 6 15
M TOR 28 4 5 6 16
M TOR 29 4 5 8 17
M TOR 30 4 5 8 18
M TOR 31 5 4 3 12
M TOR 32 5 7 6 15
M TOR 33 5 7 6 16
M TOR 34 5 8 3 12
M TOR 35 6 5 4 13
M TOR 36 6 5 4 14
M TOR 37 6 5 8 17
M TOR 38 6 5 8 18
M TOR 39 6 7 5 8
M TOR 40 7 5 4 13
M TOR 41 7 5 4 14
M TOR 42 7 5 8 17
M TOR 43 7 5 8 18
M TOR 44 8 3 2 11
M TOR 45 8 3 4 13
M TOR 46 8 3 4 14
M TOR 47 8 5 4 13
M TOR 48 8 5 4 14
M TOR 49 8 5 6 15
M TOR 50 8 5 6 16
M  END
$$$$
