
     RDKit          3D

 19 18  0  0  0  0  0  0  0  0999 V2000
    1.2555   -3.6796    0.2789 C   0  0  0  0  0  0  0  0  0  0  0  0
    1.4547   -2.2542   -0.2353 C   0  0  0  0  0  0  0  0  0  0  0  0
    1.9511   -1.3025    0.8608 C   0  0  0  0  0  0  0  0  0  0  0  0
    1.8991    0.0199    0.3645 O   0  0  0  0  0  0  0  0  0  0  0  0
    2.3913    0.9708    1.2914 C   0  0  0  0  0  0  0  0  0  0  0  0
    2.3052    2.3089    0.7236 C   0  0  0  0  0  0  0  0  0  0  0  0
    2.2457    3.4223    0.2783 C   0  0  0  0  0  0  0  0  0  0  0  0
    2.3863   -2.2000   -1.4371 C   0  0  0  0  0  0  0  0  0  0  0  0
    2.8148   -3.1714   -2.0081 O   0  0  0  0  0  0  0  0  0  0  0  0
    0.4911   -3.7105    1.0606 H   0  0  0  0  0  0  0  0  0  0  0  0
    0.9522   -4.3398   -0.5357 H   0  0  0  0  0  0  0  0  0  0  0  0
    2.1864   -4.0821    0.6907 H   0  0  0  0  0  0  0  0  0  0  0  0
    0.4969   -1.8381   -0.5840 H   0  0  0  0  0  0  0  0  0  0  0  0
    1.3173   -1.4055    1.7570 H   0  0  0  0  0  0  0  0  0  0  0  0
    2.9808   -1.5646    1.1603 H   0  0  0  0  0  0  0  0  0  0  0  0
    1.8121    0.9260    2.2294 H   0  0  0  0  0  0  0  0  0  0  0  0
    3.4382    0.7441    1.5555 H   0  0  0  0  0  0  0  0  0  0  0  0
    2.1909    4.4050   -0.1208 H   0  0  0  0  0  0  0  0  0  0  0  0
    2.6526   -1.1733   -1.7642 H   0  0  0  0  0  0  0  0  0  0  0  0
  1  2  1  0
  2  3  1  0
  3  4  1  0
  4  5  1  0
  5  6  1  0
  6  7  3  0
  2  8  1  0
  8  9  2  0
  1 10  1  0
  1 11  1  0
  1 12  1  0
  2 13  1  0
  3 14  1  0
  3 15  1  0
  5 16  1  0
  5 17  1  0
  7 18  1  0
  8 19  1  0
M  END
$$$$
