
     RDKit          3D

 19 18  0  0  0  0  0  0  0  0999 V2000
    2.7749    0.3387    0.7019 C   0  0  0  0  0  0  0  0  0  0  0  0
    1.2974    0.1606    0.4496 C   0  0  0  0  0  0  0  0  0  0  0  0
    0.4121    0.5086    1.1893 O   0  0  0  0  0  0  0  0  0  0  0  0
    1.0916   -0.4490   -0.7406 O   0  0  0  0  0  0  0  0  0  0  0  0
   -0.2791   -0.6820   -1.1116 C   0  0  0  0  0  0  0  0  0  0  0  0
   -0.7940   -1.9972   -0.5359 C   0  0  0  0  0  0  0  0  0  0  0  0
   -2.2378   -2.2834   -0.9957 C   0  0  0  0  0  0  0  0  0  0  0  0
   -2.7518   -3.5472   -0.4831 C   0  0  0  0  0  0  0  0  0  0  0  0
   -3.1533   -4.5937   -0.0499 C   0  0  0  0  0  0  0  0  0  0  0  0
    2.9222    0.8362    1.6596 H   0  0  0  0  0  0  0  0  0  0  0  0
    3.2734   -0.6347    0.7056 H   0  0  0  0  0  0  0  0  0  0  0  0
    3.2240    0.9299   -0.1010 H   0  0  0  0  0  0  0  0  0  0  0  0
   -0.8897    0.1579   -0.7695 H   0  0  0  0  0  0  0  0  0  0  0  0
   -0.2740   -0.7050   -2.2051 H   0  0  0  0  0  0  0  0  0  0  0  0
   -0.1388   -2.8160   -0.8502 H   0  0  0  0  0  0  0  0  0  0  0  0
   -0.7622   -1.9494    0.5560 H   0  0  0  0  0  0  0  0  0  0  0  0
   -2.8941   -1.4648   -0.6725 H   0  0  0  0  0  0  0  0  0  0  0  0
   -2.2809   -2.2923   -2.0933 H   0  0  0  0  0  0  0  0  0  0  0  0
   -3.5187   -5.5155    0.3296 H   0  0  0  0  0  0  0  0  0  0  0  0
  1  2  1  0
  2  3  2  0
  2  4  1  0
  4  5  1  0
  5  6  1  0
  6  7  1  0
  7  8  1  0
  8  9  3  0
  1 10  1  0
  1 11  1  0
  1 12  1  0
  5 13  1  0
  5 14  1  0
  6 15  1  0
  6 16  1  0
  7 17  1  0
  7 18  1  0
  9 19  1  0
M  END
$$$$
