gdb 5749	3.8139619	1.3779082	1.233383	1.0705	74.45	-0.23017	0.08994	0.32011	1069.4495	0.158198	-422.518907	-422.511282	-422.510338	-422.551087	29.496
 OpenBabel02181911423D

 19 21  0  0  1  0  0  0  0  0999 V2000
    1.4162    0.0920   -0.6733 C   0  0  0  0  0  0  0  0  0  0  0  0
    1.0838   -0.2364    0.6647 O   0  0  0  0  0  0  0  0  0  0  0  0
    0.0760    0.5479    1.2023 C   0  0  2  0  0  0  0  0  0  0  0  0
    0.5008    1.9180    1.3285 O   0  0  0  0  0  0  0  0  0  0  0  0
    0.0410    2.3792    2.5792 C   0  0  2  0  0  0  0  0  0  0  0  0
    0.5360    1.7189    3.8514 C   0  0  2  0  0  0  0  0  0  0  0  0
    1.0277    0.3089    3.5250 C   0  0  0  0  0  0  0  0  0  0  0  0
   -0.2427    0.1182    2.6334 C   0  0  1  0  0  0  0  0  0  0  0  0
   -0.8488    1.4007    3.2622 C   0  0  2  0  0  0  0  0  0  0  0  0
    1.8356    1.1019   -0.7433 H   0  0  0  0  0  0  0  0  0  0  0  0
    2.1600   -0.6358   -1.0043 H   0  0  0  0  0  0  0  0  0  0  0  0
    0.5350    0.0276   -1.3294 H   0  0  0  0  0  0  0  0  0  0  0  0
   -0.8118    0.5247    0.5430 H   0  0  0  0  0  0  0  0  0  0  0  0
   -0.1685    3.4419    2.5937 H   0  0  0  0  0  0  0  0  0  0  0  0
    0.7790    2.2996    4.7346 H   0  0  0  0  0  0  0  0  0  0  0  0
    1.9939    0.2023    3.0265 H   0  0  0  0  0  0  0  0  0  0  0  0
    0.9907   -0.3400    4.4027 H   0  0  0  0  0  0  0  0  0  0  0  0
   -0.7775   -0.8266    2.7071 H   0  0  0  0  0  0  0  0  0  0  0  0
   -1.8520    1.5681    3.6307 H   0  0  0  0  0  0  0  0  0  0  0  0
  1  2  1  0  0  0  0
  2  3  1  0  0  0  0
  3 13  1  6  0  0  0
  3  4  1  0  0  0  0
  3  8  1  0  0  0  0
  4  5  1  0  0  0  0
  5 14  1  1  0  0  0
  5  9  1  0  0  0  0
  5  6  1  0  0  0  0
  6 15  1  1  0  0  0
  7  6  1  0  0  0  0
  7 17  1  0  0  0  0
  8 18  1  1  0  0  0
  8  9  1  0  0  0  0
  8  7  1  0  0  0  0
  9 19  1  1  0  0  0
  9  6  1  0  0  0  0
 10  1  1  0  0  0  0
 11  1  1  0  0  0  0
 12  1  1  0  0  0  0
 16  7  1  0  0  0  0
M TOR 0 0 1 2 3
M TOR 1 0 1 2 7
M TOR 2 0 1 2 12
M TOR 3 1 2 3 4
M TOR 4 1 2 7 6
M TOR 5 1 2 7 8
M TOR 6 1 2 7 17
M TOR 7 2 1 0 9
M TOR 8 2 1 0 10
M TOR 9 2 1 0 11
M TOR 10 2 3 4 5
M TOR 11 2 3 4 8
M TOR 12 2 3 4 13
M TOR 13 2 7 6 5
M TOR 14 2 7 6 15
M TOR 15 2 7 6 16
M TOR 16 2 7 8 4
M TOR 17 2 7 8 5
M TOR 18 2 7 8 18
M TOR 19 3 2 7 6
M TOR 20 3 2 7 8
M TOR 21 3 2 7 17
M TOR 22 3 4 5 6
M TOR 23 3 4 5 8
M TOR 24 3 4 5 14
M TOR 25 3 4 8 7
M TOR 26 3 4 8 18
M TOR 27 4 3 2 7
M TOR 28 4 3 2 12
M TOR 29 4 5 6 7
M TOR 30 4 5 6 15
M TOR 31 4 5 6 16
M TOR 32 4 5 8 7
M TOR 33 4 5 8 18
M TOR 34 4 8 5 6
M TOR 35 4 8 5 14
M TOR 36 4 8 7 6
M TOR 37 4 8 7 17
M TOR 38 5 6 7 8
M TOR 39 5 6 7 17
M TOR 40 5 8 4 13
M TOR 41 5 8 7 17
M TOR 42 6 5 4 13
M TOR 43 6 5 8 18
M TOR 44 6 7 2 12
M TOR 45 6 7 8 18
M TOR 46 7 6 5 14
M TOR 47 7 8 4 13
M TOR 48 7 8 5 14
M TOR 49 8 5 6 15
M TOR 50 8 5 6 16
M TOR 51 8 7 2 12
M TOR 52 8 7 6 15
M TOR 53 8 7 6 16
M  END
$$$$
