
     RDKit          3D

 19 20  0  0  0  0  0  0  0  0999 V2000
    0.6326    1.3068    1.1669 C   0  0  0  0  0  0  0  0  0  0  0  0
    0.1249    0.0794    0.4152 C   0  0  0  0  0  0  0  0  0  0  0  0
    0.9035    0.1191   -0.7699 O   0  0  0  0  0  0  0  0  0  0  0  0
    2.1842    0.6186   -0.4082 C   0  0  0  0  0  0  0  0  0  0  0  0
    3.2193   -0.5275   -0.2220 C   0  0  0  0  0  0  0  0  0  0  0  0
    4.0631   -0.4530   -1.4666 C   0  0  0  0  0  0  0  0  0  0  0  0
    3.8017    0.6356   -2.1894 C   0  0  0  0  0  0  0  0  0  0  0  0
    2.7264    1.4885   -1.5704 C   0  0  0  0  0  0  0  0  0  0  0  0
    2.0066    1.3455    0.8066 O   0  0  0  0  0  0  0  0  0  0  0  0
    0.1146    2.2186    0.8367 H   0  0  0  0  0  0  0  0  0  0  0  0
    0.5523    1.2249    2.2547 H   0  0  0  0  0  0  0  0  0  0  0  0
    0.3091   -0.8427    0.9874 H   0  0  0  0  0  0  0  0  0  0  0  0
   -0.9308    0.1242    0.1383 H   0  0  0  0  0  0  0  0  0  0  0  0
    3.8100   -0.3509    0.6848 H   0  0  0  0  0  0  0  0  0  0  0  0
    2.7072   -1.4883   -0.0973 H   0  0  0  0  0  0  0  0  0  0  0  0
    4.8079   -1.2020   -1.7113 H   0  0  0  0  0  0  0  0  0  0  0  0
    4.3017    0.9095   -3.1116 H   0  0  0  0  0  0  0  0  0  0  0  0
    3.1229    2.4290   -1.1696 H   0  0  0  0  0  0  0  0  0  0  0  0
    1.9139    1.7404   -2.2594 H   0  0  0  0  0  0  0  0  0  0  0  0
  1  2  1  0
  2  3  1  0
  3  4  1  0
  4  5  1  0
  5  6  1  0
  6  7  2  0
  7  8  1  0
  4  9  1  0
  9  1  1  0
  8  4  1  0
  1 10  1  0
  1 11  1  0
  2 12  1  0
  2 13  1  0
  5 14  1  0
  5 15  1  0
  6 16  1  0
  7 17  1  0
  8 18  1  0
  8 19  1  0
M  END
$$$$
