
     RDKit          3D

 19 20  0  0  0  0  0  0  0  0999 V2000
   -0.2050   -0.0680    0.0654 C   0  0  0  0  0  0  0  0  0  0  0  0
    1.3031   -0.0947   -0.0276 C   0  0  0  0  0  0  0  0  0  0  0  0
    1.7743   -0.8546    1.0683 O   0  0  0  0  0  0  0  0  0  0  0  0
    2.0614   -0.4959   -1.3283 C   0  0  0  0  0  0  0  0  0  0  0  0
    1.4754    0.0932   -2.6184 C   0  0  0  0  0  0  0  0  0  0  0  0
    1.2535    1.5787   -2.4273 C   0  0  0  0  0  0  0  0  0  0  0  0
    1.5664    2.1258   -1.2524 C   0  0  0  0  0  0  0  0  0  0  0  0
    2.1619    1.2003   -0.2202 C   0  0  0  0  0  0  0  0  0  0  0  0
    3.1666    0.3555   -0.8842 O   0  0  0  0  0  0  0  0  0  0  0  0
   -0.5064    0.3270    1.0404 H   0  0  0  0  0  0  0  0  0  0  0  0
   -0.6504    0.5491   -0.7154 H   0  0  0  0  0  0  0  0  0  0  0  0
   -0.5991   -1.0860   -0.0148 H   0  0  0  0  0  0  0  0  0  0  0  0
    2.7370   -0.8698    0.9938 H   0  0  0  0  0  0  0  0  0  0  0  0
    2.3581   -1.5449   -1.4222 H   0  0  0  0  0  0  0  0  0  0  0  0
    2.1578   -0.0917   -3.4587 H   0  0  0  0  0  0  0  0  0  0  0  0
    0.5338   -0.4134   -2.8708 H   0  0  0  0  0  0  0  0  0  0  0  0
    0.8514    2.1595   -3.2520 H   0  0  0  0  0  0  0  0  0  0  0  0
    1.4158    3.1758   -1.0266 H   0  0  0  0  0  0  0  0  0  0  0  0
    2.5572    1.6894    0.6728 H   0  0  0  0  0  0  0  0  0  0  0  0
  1  2  1  0
  2  3  1  0
  2  4  1  0
  4  5  1  0
  5  6  1  0
  6  7  2  0
  7  8  1  0
  8  9  1  0
  8  2  1  0
  9  4  1  0
  1 10  1  0
  1 11  1  0
  1 12  1  0
  3 13  1  0
  4 14  1  0
  5 15  1  0
  5 16  1  0
  6 17  1  0
  7 18  1  0
  8 19  1  0
M  END
$$$$
