
     RDKit          3D

 19 20  0  0  0  0  0  0  0  0999 V2000
   -3.1868    1.8999    1.3157 C   0  0  0  0  0  0  0  0  0  0  0  0
   -2.0478    0.9242    1.0889 C   0  0  0  0  0  0  0  0  0  0  0  0
   -2.2296   -0.1803    0.0963 C   0  0  0  0  0  0  0  0  0  0  0  0
   -1.0123   -1.1154    0.1186 C   0  0  0  0  0  0  0  0  0  0  0  0
   -1.0039   -2.2905   -0.8531 C   0  0  0  0  0  0  0  0  0  0  0  0
   -0.2058    0.1035   -0.4102 C   0  0  0  0  0  0  0  0  0  0  0  0
    0.7550    0.1686   -1.1390 O   0  0  0  0  0  0  0  0  0  0  0  0
   -1.2894    1.0899   -0.2020 C   0  0  0  0  0  0  0  0  0  0  0  0
   -1.4361    2.2217   -0.9539 O   0  0  0  0  0  0  0  0  0  0  0  0
   -3.8821    1.5021    2.0612 H   0  0  0  0  0  0  0  0  0  0  0  0
   -2.8088    2.8599    1.6791 H   0  0  0  0  0  0  0  0  0  0  0  0
   -3.7397    2.0907    0.3928 H   0  0  0  0  0  0  0  0  0  0  0  0
   -1.4787    0.6945    1.9906 H   0  0  0  0  0  0  0  0  0  0  0  0
   -3.1752   -0.3996   -0.3829 H   0  0  0  0  0  0  0  0  0  0  0  0
   -0.7386   -1.4442    1.1281 H   0  0  0  0  0  0  0  0  0  0  0  0
   -1.6791   -3.0832   -0.5168 H   0  0  0  0  0  0  0  0  0  0  0  0
   -1.3144   -1.9772   -1.8550 H   0  0  0  0  0  0  0  0  0  0  0  0
    0.0038   -2.7065   -0.9345 H   0  0  0  0  0  0  0  0  0  0  0  0
   -0.9211    2.0892   -1.7612 H   0  0  0  0  0  0  0  0  0  0  0  0
  1  2  1  0
  2  3  1  0
  3  4  1  0
  4  5  1  0
  4  6  1  0
  6  7  2  0
  6  8  1  0
  8  9  1  0
  8  2  1  0
  8  3  1  0
  1 10  1  0
  1 11  1  0
  1 12  1  0
  2 13  1  0
  3 14  1  0
  4 15  1  0
  5 16  1  0
  5 17  1  0
  5 18  1  0
  9 19  1  0
M  END
$$$$
