gdb 5082	2.6855434	1.2462725	1.1749971	2.4819	75.63	-0.2453	-0.01114	0.23415999999999998	1174.4035	0.15603	-422.551697	-422.542893	-422.541949	-422.585184	33.209
 OpenBabel02181911423D

 19 20  0  0  1  0  0  0  0  0999 V2000
    1.4377    1.0041    0.2792 C   0  0  0  0  0  0  0  0  0  0  0  0
    1.0822   -0.4345   -0.1161 C   0  0  0  0  0  0  0  0  0  0  0  0
    1.8104   -0.9021   -1.3492 C   0  0  1  0  0  0  0  0  0  0  0  0
    1.1994   -1.9995   -2.0820 O   0  0  0  0  0  0  0  0  0  0  0  0
    1.3526   -0.7447   -2.7432 C   0  0  2  0  0  0  0  0  0  0  0  0
    2.5786   -0.6604   -3.6567 C   0  0  1  0  0  0  0  0  0  0  0  0
    2.6451    0.5718   -4.3631 O   0  0  0  0  0  0  0  0  0  0  0  0
    3.7293   -0.8675   -2.6896 C   0  0  0  0  0  0  0  0  0  0  0  0
    3.3088   -0.9598   -1.4249 C   0  0  0  0  0  0  0  0  0  0  0  0
    0.9039    1.3016    1.1863 H   0  0  0  0  0  0  0  0  0  0  0  0
    2.5098    1.1133    0.4727 H   0  0  0  0  0  0  0  0  0  0  0  0
    1.1704    1.7090   -0.5150 H   0  0  0  0  0  0  0  0  0  0  0  0
    1.3155   -1.1154    0.7130 H   0  0  0  0  0  0  0  0  0  0  0  0
    0.0072   -0.5280   -0.2997 H   0  0  0  0  0  0  0  0  0  0  0  0
    0.4395   -0.2291   -3.0336 H   0  0  0  0  0  0  0  0  0  0  0  0
    2.5464   -1.4397   -4.4260 H   0  0  0  0  0  0  0  0  0  0  0  0
    2.8466    1.2598   -3.7188 H   0  0  0  0  0  0  0  0  0  0  0  0
    4.7557   -0.9431   -3.0303 H   0  0  0  0  0  0  0  0  0  0  0  0
    3.9376   -1.1057   -0.5539 H   0  0  0  0  0  0  0  0  0  0  0  0
  1 11  1  0  0  0  0
  1 10  1  0  0  0  0
  2  1  1  0  0  0  0
  2 13  1  0  0  0  0
  3  2  1  1  0  0  0
  4  3  1  0  0  0  0
  5 15  1  6  0  0  0
  5  4  1  0  0  0  0
  5  3  1  0  0  0  0
  6 16  1  6  0  0  0
  6  5  1  0  0  0  0
  6  8  1  0  0  0  0
  7 17  1  0  0  0  0
  7  6  1  0  0  0  0
  8  9  2  0  0  0  0
  9  3  1  0  0  0  0
  9 19  1  0  0  0  0
 12  1  1  0  0  0  0
 14  2  1  0  0  0  0
 18  8  1  0  0  0  0
M TOR 0 0 1 2 3
M TOR 1 0 1 2 4
M TOR 2 0 1 2 8
M TOR 3 1 2 3 4
M TOR 4 1 2 4 5
M TOR 5 1 2 4 14
M TOR 6 1 2 8 7
M TOR 7 1 2 8 18
M TOR 8 2 1 0 9
M TOR 9 2 1 0 10
M TOR 10 2 1 0 11
M TOR 11 2 3 4 5
M TOR 12 2 3 4 14
M TOR 13 2 4 5 6
M TOR 14 2 4 5 7
M TOR 15 2 4 5 15
M TOR 16 2 8 7 5
M TOR 17 2 8 7 17
M TOR 18 3 2 1 12
M TOR 19 3 2 1 13
M TOR 20 3 2 8 7
M TOR 21 3 2 8 18
M TOR 22 3 4 2 8
M TOR 23 3 4 5 6
M TOR 24 3 4 5 7
M TOR 25 3 4 5 15
M TOR 26 4 2 1 12
M TOR 27 4 2 1 13
M TOR 28 4 2 8 7
M TOR 29 4 2 8 18
M TOR 30 4 5 6 16
M TOR 31 4 5 7 8
M TOR 32 4 5 7 17
M TOR 33 5 4 2 8
M TOR 34 5 7 8 18
M TOR 35 6 5 4 14
M TOR 36 6 5 7 8
M TOR 37 6 5 7 17
M TOR 38 7 5 4 14
M TOR 39 7 5 6 16
M TOR 40 8 2 1 12
M TOR 41 8 2 1 13
M TOR 42 8 2 4 14
M TOR 43 8 7 5 15
M  END
$$$$
