gdb 5813	2.5693409	1.6078097	1.1958302	2.9082	74.91	-0.24729	-0.00552	0.24177	1071.363	0.158566	-422.548318	-422.54027	-422.539325	-422.580917	31.108
 OpenBabel02181911423D

 19 20  0  0  1  0  0  0  0  0999 V2000
    1.4390    0.5044   -0.2895 O   0  0  0  0  0  0  0  0  0  0  0  0
    0.0571    0.4171   -0.0117 C   0  0  0  0  0  0  0  0  0  0  0  0
   -0.8193    0.4464   -1.2814 C   0  0  2  0  0  0  0  0  0  0  0  0
   -2.3000    0.2107   -0.9050 C   0  0  0  0  0  0  0  0  0  0  0  0
   -2.6552   -1.2484   -0.7518 C   0  0  0  0  0  0  0  0  0  0  0  0
   -2.0148   -2.2269   -1.3935 C   0  0  0  0  0  0  0  0  0  0  0  0
   -0.9131   -1.9196   -2.3384 C   0  0  2  0  0  0  0  0  0  0  0  0
    0.4111   -1.7009   -1.7959 O   0  0  0  0  0  0  0  0  0  0  0  0
   -0.3244   -0.5749   -2.3104 C   0  0  2  0  0  0  0  0  0  0  0  0
    1.6912   -0.3491   -0.6607 H   0  0  0  0  0  0  0  0  0  0  0  0
   -0.1800   -0.4855    0.5685 H   0  0  0  0  0  0  0  0  0  0  0  0
   -0.1942    1.2845    0.6088 H   0  0  0  0  0  0  0  0  0  0  0  0
   -0.7176    1.4405   -1.7293 H   0  0  0  0  0  0  0  0  0  0  0  0
   -2.5235    0.7414    0.0287 H   0  0  0  0  0  0  0  0  0  0  0  0
   -2.9627    0.6606   -1.6577 H   0  0  0  0  0  0  0  0  0  0  0  0
   -3.4862   -1.4891   -0.0933 H   0  0  0  0  0  0  0  0  0  0  0  0
   -2.3020   -3.2661   -1.2634 H   0  0  0  0  0  0  0  0  0  0  0  0
   -0.8963   -2.4874   -3.2680 H   0  0  0  0  0  0  0  0  0  0  0  0
    0.0964   -0.1727   -3.2302 H   0  0  0  0  0  0  0  0  0  0  0  0
  1  2  1  0  0  0  0
  2 11  1  0  0  0  0
  2 12  1  0  0  0  0
  3 13  1  6  0  0  0
  3  4  1  0  0  0  0
  3  2  1  0  0  0  0
  4  5  1  0  0  0  0
  4 14  1  0  0  0  0
  5 16  1  0  0  0  0
  6 17  1  0  0  0  0
  6  5  2  0  0  0  0
  7 18  1  6  0  0  0
  7  9  1  0  0  0  0
  7  8  1  0  0  0  0
  7  6  1  0  0  0  0
  9 19  1  6  0  0  0
  9  8  1  0  0  0  0
  9  3  1  0  0  0  0
 10  1  1  0  0  0  0
 15  4  1  0  0  0  0
M TOR 0 0 1 2 3
M TOR 1 0 1 2 8
M TOR 2 0 1 2 12
M TOR 3 1 2 3 4
M TOR 4 1 2 3 13
M TOR 5 1 2 3 14
M TOR 6 1 2 8 6
M TOR 7 1 2 8 7
M TOR 8 1 2 8 18
M TOR 9 2 1 0 9
M TOR 10 2 3 4 5
M TOR 11 2 3 4 15
M TOR 12 2 8 6 5
M TOR 13 2 8 6 7
M TOR 14 2 8 6 17
M TOR 15 3 2 1 10
M TOR 16 3 2 1 11
M TOR 17 3 2 8 6
M TOR 18 3 2 8 7
M TOR 19 3 2 8 18
M TOR 20 3 4 5 6
M TOR 21 3 4 5 16
M TOR 22 4 3 2 8
M TOR 23 4 3 2 12
M TOR 24 4 5 6 7
M TOR 25 4 5 6 8
M TOR 26 4 5 6 17
M TOR 27 5 4 3 13
M TOR 28 5 4 3 14
M TOR 29 5 6 7 8
M TOR 30 5 6 8 18
M TOR 31 6 5 4 15
M TOR 32 6 7 8 18
M TOR 33 6 8 2 12
M TOR 34 7 6 5 16
M TOR 35 7 8 2 12
M TOR 36 7 8 6 17
M TOR 37 8 2 1 10
M TOR 38 8 2 1 11
M TOR 39 8 2 3 13
M TOR 40 8 2 3 14
M TOR 41 8 6 5 16
M  END
$$$$
