
     RDKit          3D

 19 21  0  0  0  0  0  0  0  0999 V2000
   -2.8799    2.5995    1.8286 C   0  0  0  0  0  0  0  0  0  0  0  0
   -2.4623    1.1880    1.5528 C   0  0  0  0  0  0  0  0  0  0  0  0
   -3.3001    0.0147    1.1946 C   0  0  0  0  0  0  0  0  0  0  0  0
   -3.1219   -1.0972    2.0489 O   0  0  0  0  0  0  0  0  0  0  0  0
   -2.0486   -0.7570    2.9378 C   0  0  0  0  0  0  0  0  0  0  0  0
   -1.3101    0.3704    2.2216 C   0  0  0  0  0  0  0  0  0  0  0  0
   -0.8575   -0.0906    0.7946 C   0  0  0  0  0  0  0  0  0  0  0  0
    0.1902    0.6931    0.2563 O   0  0  0  0  0  0  0  0  0  0  0  0
   -2.1801    0.4174    0.2484 C   0  0  0  0  0  0  0  0  0  0  0  0
   -3.2175    2.7211    2.8650 H   0  0  0  0  0  0  0  0  0  0  0  0
   -2.0541    3.2993    1.6595 H   0  0  0  0  0  0  0  0  0  0  0  0
   -3.7068    2.8980    1.1757 H   0  0  0  0  0  0  0  0  0  0  0  0
   -4.3215    0.1300    0.8506 H   0  0  0  0  0  0  0  0  0  0  0  0
   -2.4466   -0.4321    3.9115 H   0  0  0  0  0  0  0  0  0  0  0  0
   -1.4355   -1.6522    3.0908 H   0  0  0  0  0  0  0  0  0  0  0  0
   -0.5582    0.8997    2.8073 H   0  0  0  0  0  0  0  0  0  0  0  0
   -0.6450   -1.1650    0.6826 H   0  0  0  0  0  0  0  0  0  0  0  0
    1.0113    0.4147    0.6751 H   0  0  0  0  0  0  0  0  0  0  0  0
   -2.3579    0.7099   -0.7810 H   0  0  0  0  0  0  0  0  0  0  0  0
  1  2  1  0
  2  3  1  0
  3  4  1  0
  4  5  1  0
  5  6  1  0
  6  7  1  0
  7  8  1  0
  7  9  1  0
  6  2  1  0
  9  2  1  0
  9  3  1  0
  1 10  1  0
  1 11  1  0
  1 12  1  0
  3 13  1  0
  5 14  1  0
  5 15  1  0
  6 16  1  0
  7 17  1  0
  8 18  1  0
  9 19  1  0
M  END
$$$$
