
     RDKit          3D

 19 18  0  0  0  0  0  0  0  0999 V2000
    2.4561   -2.5291    0.5049 C   0  0  0  0  0  0  0  0  0  0  0  0
    3.1315   -1.2002    0.8585 C   0  0  0  0  0  0  0  0  0  0  0  0
    4.6482   -1.2889    0.6403 C   0  0  0  0  0  0  0  0  0  0  0  0
    2.8444   -0.8391    2.2129 O   0  0  0  0  0  0  0  0  0  0  0  0
    2.5357   -0.0207    0.0165 C   0  0  0  0  0  0  0  0  0  0  0  0
    3.0447    1.3176    0.5833 C   0  0  0  0  0  0  0  0  0  0  0  0
    4.0305    1.8723    0.1771 O   0  0  0  0  0  0  0  0  0  0  0  0
    1.0789    0.0038   -0.0124 C   0  0  0  0  0  0  0  0  0  0  0  0
   -0.1196    0.0935   -0.0336 C   0  0  0  0  0  0  0  0  0  0  0  0
    2.8940   -3.3375    1.1020 H   0  0  0  0  0  0  0  0  0  0  0  0
    1.3855   -2.4821    0.7110 H   0  0  0  0  0  0  0  0  0  0  0  0
    2.6002   -2.7814   -0.5505 H   0  0  0  0  0  0  0  0  0  0  0  0
    5.0675   -2.0586    1.2983 H   0  0  0  0  0  0  0  0  0  0  0  0
    4.8837   -1.5715   -0.3906 H   0  0  0  0  0  0  0  0  0  0  0  0
    5.1406   -0.3397    0.8581 H   0  0  0  0  0  0  0  0  0  0  0  0
    3.2032   -1.5249    2.7859 H   0  0  0  0  0  0  0  0  0  0  0  0
    2.9316   -0.1070   -1.0012 H   0  0  0  0  0  0  0  0  0  0  0  0
    2.4249    1.7321    1.4014 H   0  0  0  0  0  0  0  0  0  0  0  0
   -1.1796    0.1564   -0.0581 H   0  0  0  0  0  0  0  0  0  0  0  0
  1  2  1  0
  2  3  1  0
  2  4  1  0
  2  5  1  0
  5  6  1  0
  6  7  2  0
  5  8  1  0
  8  9  3  0
  1 10  1  0
  1 11  1  0
  1 12  1  0
  3 13  1  0
  3 14  1  0
  3 15  1  0
  4 16  1  0
  5 17  1  0
  6 18  1  0
  9 19  1  0
M  END
$$$$
