gdb 5646	2.5128342	1.3152839	0.9746708	4.3101	76.53	-0.26778	0.01126	0.27904	1262.1304	0.156219	-422.574726	-422.565746	-422.564802	-422.608665	32.767
 OpenBabel02181911423D

 19 20  0  0  1  0  0  0  0  0999 V2000
    1.6772   -0.0803    1.1666 C   0  0  0  0  0  0  0  0  0  0  0  0
    1.7546    0.3372   -0.3052 C   0  0  0  0  0  0  0  0  0  0  0  0
    2.2016   -0.7923   -1.2109 C   0  0  1  0  0  0  0  0  0  0  0  0
    1.2259   -1.9052   -1.2272 O   0  0  0  0  0  0  0  0  0  0  0  0
    1.0381   -1.7913   -2.5870 C   0  0  0  0  0  0  0  0  0  0  0  0
    0.3263   -2.4399   -3.2867 O   0  0  0  0  0  0  0  0  0  0  0  0
    2.0076   -0.6571   -2.7191 C   0  0  0  0  0  0  0  0  0  0  0  0
    2.9810   -0.4350   -3.8435 C   0  0  0  0  0  0  0  0  0  0  0  0
    1.8724    0.5495   -3.6079 C   0  0  0  0  0  0  0  0  0  0  0  0
    0.9777   -0.9110    1.2936 H   0  0  0  0  0  0  0  0  0  0  0  0
    2.6550   -0.4037    1.5397 H   0  0  0  0  0  0  0  0  0  0  0  0
    1.3385    0.7508    1.7915 H   0  0  0  0  0  0  0  0  0  0  0  0
    0.7793    0.6990   -0.6509 H   0  0  0  0  0  0  0  0  0  0  0  0
    2.4620    1.1683   -0.4267 H   0  0  0  0  0  0  0  0  0  0  0  0
    3.1782   -1.1885   -0.9124 H   0  0  0  0  0  0  0  0  0  0  0  0
    3.9915   -0.1446   -3.5759 H   0  0  0  0  0  0  0  0  0  0  0  0
    2.9070   -1.1047   -4.6933 H   0  0  0  0  0  0  0  0  0  0  0  0
    2.1243    1.5133   -3.1786 H   0  0  0  0  0  0  0  0  0  0  0  0
    1.0336    0.5601   -4.2952 H   0  0  0  0  0  0  0  0  0  0  0  0
  1 10  1  0  0  0  0
  1 11  1  0  0  0  0
  1 12  1  0  0  0  0
  2  1  1  0  0  0  0
  3 15  1  1  0  0  0
  3  2  1  0  0  0  0
  4  3  1  0  0  0  0
  5  4  1  0  0  0  0
  6  5  2  0  0  0  0
  7  5  1  0  0  0  0
  7  3  1  0  0  0  0
  8  9  1  0  0  0  0
  8 16  1  0  0  0  0
  8  7  1  0  0  0  0
  9 18  1  0  0  0  0
  9  7  1  0  0  0  0
 13  2  1  0  0  0  0
 14  2  1  0  0  0  0
 17  8  1  0  0  0  0
 19  9  1  0  0  0  0
M TOR 0 0 1 2 3
M TOR 1 0 1 2 6
M TOR 2 0 1 2 14
M TOR 3 1 2 3 4
M TOR 4 1 2 6 4
M TOR 5 1 2 6 7
M TOR 6 1 2 6 8
M TOR 7 2 1 0 9
M TOR 8 2 1 0 10
M TOR 9 2 1 0 11
M TOR 10 2 3 4 5
M TOR 11 2 3 4 6
M TOR 12 2 6 4 5
M TOR 13 2 6 7 8
M TOR 14 2 6 7 15
M TOR 15 2 6 7 16
M TOR 16 2 6 8 17
M TOR 17 2 6 8 18
M TOR 18 3 2 1 12
M TOR 19 3 2 1 13
M TOR 20 3 2 6 7
M TOR 21 3 2 6 8
M TOR 22 3 4 6 7
M TOR 23 3 4 6 8
M TOR 24 4 3 2 14
M TOR 25 4 6 2 14
M TOR 26 4 6 7 8
M TOR 27 4 6 7 15
M TOR 28 4 6 7 16
M TOR 29 4 6 8 17
M TOR 30 4 6 8 18
M TOR 31 5 4 6 7
M TOR 32 5 4 6 8
M TOR 33 6 2 1 12
M TOR 34 6 2 1 13
M TOR 35 6 7 8 17
M TOR 36 6 7 8 18
M TOR 37 6 8 7 15
M TOR 38 6 8 7 16
M TOR 39 7 6 2 14
M TOR 40 8 6 2 14
M  END
$$$$
