gdb 5841	2.0489866	1.381099	0.8723851	1.7258	77.2	-0.25014	0.04162	0.29175999999999996	1319.5906	0.154275	-422.489011	-422.479191	-422.478247	-422.524624	34.595
 OpenBabel02181911423D

 19 19  0  0  1  0  0  0  0  0999 V2000
    1.6237    0.9227   -0.0378 C   0  0  0  0  0  0  0  0  0  0  0  0
    0.2808    0.4814    0.0301 O   0  0  0  0  0  0  0  0  0  0  0  0
   -0.3456    0.7741    1.2420 C   0  0  2  0  0  0  0  0  0  0  0  0
   -1.7891    0.2566    1.3172 C   0  0  0  0  0  0  0  0  0  0  0  0
   -2.2866    1.5709    1.6529 O   0  0  0  0  0  0  0  0  0  0  0  0
   -0.9965    2.1754    1.4200 C   0  0  1  0  0  0  0  0  0  0  0  0
   -0.5855    3.0532    2.6044 C   0  0  0  0  0  0  0  0  0  0  0  0
    0.6903    3.7236    2.3931 C   0  0  0  0  0  0  0  0  0  0  0  0
    1.7454    4.2633    2.1898 C   0  0  0  0  0  0  0  0  0  0  0  0
    2.2410    0.4453    0.7384 H   0  0  0  0  0  0  0  0  0  0  0  0
    2.0040    0.6368   -1.0210 H   0  0  0  0  0  0  0  0  0  0  0  0
    1.7053    2.0116    0.0810 H   0  0  0  0  0  0  0  0  0  0  0  0
    0.2861    0.4863    2.0959 H   0  0  0  0  0  0  0  0  0  0  0  0
   -2.1553   -0.0915    0.3441 H   0  0  0  0  0  0  0  0  0  0  0  0
   -2.0236   -0.4830    2.0896 H   0  0  0  0  0  0  0  0  0  0  0  0
   -0.9831    2.7552    0.4874 H   0  0  0  0  0  0  0  0  0  0  0  0
   -1.3784    3.7936    2.7690 H   0  0  0  0  0  0  0  0  0  0  0  0
   -0.5484    2.4345    3.5098 H   0  0  0  0  0  0  0  0  0  0  0  0
    2.6735    4.7536    2.0290 H   0  0  0  0  0  0  0  0  0  0  0  0
  1  2  1  0  0  0  0
  1 12  1  0  0  0  0
  1 10  1  0  0  0  0
  2  3  1  0  0  0  0
  3  4  1  0  0  0  0
  3  6  1  0  0  0  0
  3 13  1  1  0  0  0
  4  5  1  0  0  0  0
  4 15  1  0  0  0  0
  6 16  1  6  0  0  0
  6  5  1  0  0  0  0
  6  7  1  0  0  0  0
  7 17  1  0  0  0  0
  7 18  1  0  0  0  0
  8  7  1  0  0  0  0
  9  8  3  0  0  0  0
 11  1  1  0  0  0  0
 14  4  1  0  0  0  0
 19  9  1  0  0  0  0
M TOR 0 0 1 2 3
M TOR 1 0 1 2 5
M TOR 2 0 1 2 12
M TOR 3 1 2 3 4
M TOR 4 1 2 3 13
M TOR 5 1 2 3 14
M TOR 6 1 2 5 4
M TOR 7 1 2 5 6
M TOR 8 1 2 5 15
M TOR 9 2 1 0 9
M TOR 10 2 1 0 10
M TOR 11 2 1 0 11
M TOR 12 2 3 4 5
M TOR 13 2 5 6 7
M TOR 14 2 5 6 16
M TOR 15 2 5 6 17
M TOR 16 3 2 5 6
M TOR 17 3 2 5 15
M TOR 18 3 4 5 6
M TOR 19 3 4 5 15
M TOR 20 4 3 2 12
M TOR 21 4 5 2 12
M TOR 22 4 5 6 7
M TOR 23 4 5 6 16
M TOR 24 4 5 6 17
M TOR 25 5 2 3 13
M TOR 26 5 2 3 14
M TOR 27 5 4 3 13
M TOR 28 5 4 3 14
M TOR 29 5 6 7 8
M TOR 30 6 5 2 12
M TOR 31 6 7 8 18
M TOR 32 7 6 5 15
M TOR 33 8 7 6 16
M TOR 34 8 7 6 17
M  END
$$$$
