gdb 3342	2.8666894	1.4495777	1.1352223	2.7157	75.77	-0.23038	0.06839	0.29877	1114.4368	0.157116	-422.496937	-422.488796	-422.487852	-422.529642	31.445
 OpenBabel02181911413D

 19 21  0  0  1  0  0  0  0  0999 V2000
    1.0820   -2.8519   -1.0239 O   0  0  0  0  0  0  0  0  0  0  0  0
   -0.2731   -2.5746   -1.1904 C   0  0  1  0  0  0  0  0  0  0  0  0
   -1.1723   -2.5475    0.0206 C   0  0  2  0  0  0  0  0  0  0  0  0
   -2.6367   -2.4329   -0.4080 C   0  0  0  0  0  0  0  0  0  0  0  0
   -2.2931   -1.1207   -1.1885 C   0  0  0  0  0  0  0  0  0  0  0  0
   -0.8264   -1.2439   -0.7472 C   0  0  2  0  0  0  0  0  0  0  0  0
    0.0061   -0.0829   -0.3447 C   0  0  2  0  0  0  0  0  0  0  0  0
    1.1874    0.3609   -1.1054 C   0  0  0  0  0  0  0  0  0  0  0  0
    1.3415   -0.3583    0.1286 O   0  0  0  0  0  0  0  0  0  0  0  0
    1.4533   -2.1750   -0.4360 H   0  0  0  0  0  0  0  0  0  0  0  0
   -0.6412   -3.0239   -2.1134 H   0  0  0  0  0  0  0  0  0  0  0  0
   -0.7968   -2.8895    0.9784 H   0  0  0  0  0  0  0  0  0  0  0  0
   -3.0241   -3.2680   -1.0015 H   0  0  0  0  0  0  0  0  0  0  0  0
   -3.3220   -2.2515    0.4225 H   0  0  0  0  0  0  0  0  0  0  0  0
   -2.4672   -1.1247   -2.2697 H   0  0  0  0  0  0  0  0  0  0  0  0
   -2.7891   -0.2441   -0.7623 H   0  0  0  0  0  0  0  0  0  0  0  0
   -0.5082    0.6698    0.2562 H   0  0  0  0  0  0  0  0  0  0  0  0
    1.4796   -0.1941   -1.9936 H   0  0  0  0  0  0  0  0  0  0  0  0
    1.5019    1.4018   -1.0664 H   0  0  0  0  0  0  0  0  0  0  0  0
  1 10  1  0  0  0  0
  2 11  1  6  0  0  0
  2  1  1  0  0  0  0
  2  6  1  0  0  0  0
  2  3  1  0  0  0  0
  3 12  1  1  0  0  0
  4  3  1  0  0  0  0
  4 14  1  0  0  0  0
  5 16  1  0  0  0  0
  5  4  1  0  0  0  0
  6  5  1  6  0  0  0
  6  7  1  0  0  0  0
  6  3  1  0  0  0  0
  7  9  1  0  0  0  0
  7 17  1  1  0  0  0
  8 19  1  0  0  0  0
  8  7  1  0  0  0  0
  8  9  1  0  0  0  0
 13  4  1  0  0  0  0
 15  5  1  0  0  0  0
 18  8  1  0  0  0  0
M TOR 0 0 1 2 3
M TOR 1 0 1 2 5
M TOR 2 0 1 2 11
M TOR 3 0 1 5 4
M TOR 4 0 1 5 6
M TOR 5 1 2 3 4
M TOR 6 1 2 3 12
M TOR 7 1 2 3 13
M TOR 8 1 2 5 4
M TOR 9 1 2 5 6
M TOR 10 1 5 2 3
M TOR 11 1 5 2 11
M TOR 12 1 5 4 3
M TOR 13 1 5 4 14
M TOR 14 1 5 4 15
M TOR 15 1 5 6 7
M TOR 16 1 5 6 8
M TOR 17 1 5 6 16
M TOR 18 2 1 0 9
M TOR 19 2 3 4 5
M TOR 20 2 3 4 14
M TOR 21 2 3 4 15
M TOR 22 2 5 1 10
M TOR 23 2 5 4 14
M TOR 24 2 5 4 15
M TOR 25 2 5 6 7
M TOR 26 2 5 6 8
M TOR 27 2 5 6 16
M TOR 28 3 2 1 10
M TOR 29 3 2 5 6
M TOR 30 3 4 5 6
M TOR 31 4 3 2 11
M TOR 32 4 5 1 10
M TOR 33 4 5 2 11
M TOR 34 4 5 6 7
M TOR 35 4 5 6 8
M TOR 36 4 5 6 16
M TOR 37 5 1 0 9
M TOR 38 5 2 3 12
M TOR 39 5 2 3 13
M TOR 40 5 4 3 12
M TOR 41 5 4 3 13
M TOR 42 5 6 7 8
M TOR 43 5 6 7 17
M TOR 44 5 6 7 18
M TOR 45 6 5 1 10
M TOR 46 6 5 2 11
M TOR 47 6 5 4 14
M TOR 48 6 5 4 15
M TOR 49 6 8 7 17
M TOR 50 6 8 7 18
M TOR 51 7 8 6 16
M  END
$$$$
