gdb 5252	3.9864765	1.310883	1.1834157	2.6334	74.57	-0.22585	0.08872	0.31457	1095.5134	0.157625	-422.511193	-422.503373	-422.502429	-422.543522	30.114
 OpenBabel02181911423D

 19 21  0  0  1  0  0  0  0  0999 V2000
    1.4504   -0.1285    0.0441 C   0  0  0  0  0  0  0  0  0  0  0  0
    0.0399   -0.2003    0.1718 O   0  0  0  0  0  0  0  0  0  0  0  0
   -0.4794    0.5158    1.2227 C   0  0  2  0  0  0  0  0  0  0  0  0
   -0.1720    0.3309    2.7073 C   0  0  0  0  0  0  0  0  0  0  0  0
   -0.6925    1.7909    2.9396 C   0  0  2  0  0  0  0  0  0  0  0  0
   -2.1913    1.7634    3.2428 C   0  0  0  0  0  0  0  0  0  0  0  0
   -2.7694    1.0966    2.1114 O   0  0  0  0  0  0  0  0  0  0  0  0
   -1.8231    1.1797    1.0669 C   0  0  1  0  0  0  0  0  0  0  0  0
   -0.6502    2.0441    1.4067 C   0  0  2  0  0  0  0  0  0  0  0  0
    1.9643   -0.6101    0.8868 H   0  0  0  0  0  0  0  0  0  0  0  0
    1.7112   -0.6580   -0.8746 H   0  0  0  0  0  0  0  0  0  0  0  0
    1.7925    0.9132   -0.0278 H   0  0  0  0  0  0  0  0  0  0  0  0
   -0.6896   -0.4776    3.2347 H   0  0  0  0  0  0  0  0  0  0  0  0
    0.9019    0.2630    2.8984 H   0  0  0  0  0  0  0  0  0  0  0  0
   -0.0978    2.4280    3.5924 H   0  0  0  0  0  0  0  0  0  0  0  0
   -2.4421    1.1928    4.1431 H   0  0  0  0  0  0  0  0  0  0  0  0
   -2.6046    2.7788    3.3399 H   0  0  0  0  0  0  0  0  0  0  0  0
   -2.2582    1.1858    0.0748 H   0  0  0  0  0  0  0  0  0  0  0  0
   -0.3023    2.9144    0.8671 H   0  0  0  0  0  0  0  0  0  0  0  0
  1  2  1  0  0  0  0
  1 10  1  0  0  0  0
  3  2  1  6  0  0  0
  3  9  1  0  0  0  0
  3  4  1  0  0  0  0
  4 14  1  0  0  0  0
  4  5  1  0  0  0  0
  4 13  1  0  0  0  0
  5  6  1  0  0  0  0
  5 15  1  1  0  0  0
  6 17  1  0  0  0  0
  6 16  1  0  0  0  0
  7  6  1  0  0  0  0
  8 18  1  6  0  0  0
  8  3  1  0  0  0  0
  8  9  1  0  0  0  0
  8  7  1  0  0  0  0
  9 19  1  6  0  0  0
  9  5  1  0  0  0  0
 11  1  1  0  0  0  0
 12  1  1  0  0  0  0
M TOR 0 0 1 2 3
M TOR 1 0 1 2 7
M TOR 2 0 1 2 8
M TOR 3 1 2 3 4
M TOR 4 1 2 3 12
M TOR 5 1 2 3 13
M TOR 6 1 2 7 6
M TOR 7 1 2 7 8
M TOR 8 1 2 7 17
M TOR 9 1 2 8 4
M TOR 10 1 2 8 18
M TOR 11 2 1 0 9
M TOR 12 2 1 0 10
M TOR 13 2 1 0 11
M TOR 14 2 3 4 5
M TOR 15 2 3 4 8
M TOR 16 2 3 4 14
M TOR 17 2 7 6 5
M TOR 18 2 7 8 4
M TOR 19 2 7 8 18
M TOR 20 2 8 4 5
M TOR 21 2 8 4 14
M TOR 22 2 8 7 6
M TOR 23 2 8 7 17
M TOR 24 3 2 7 6
M TOR 25 3 2 7 8
M TOR 26 3 2 7 17
M TOR 27 3 2 8 18
M TOR 28 3 4 5 6
M TOR 29 3 4 5 15
M TOR 30 3 4 5 16
M TOR 31 3 4 8 7
M TOR 32 3 4 8 18
M TOR 33 4 3 2 7
M TOR 34 4 5 6 7
M TOR 35 4 8 7 6
M TOR 36 4 8 7 17
M TOR 37 5 4 3 12
M TOR 38 5 4 3 13
M TOR 39 5 4 8 7
M TOR 40 5 4 8 18
M TOR 41 5 6 7 8
M TOR 42 5 6 7 17
M TOR 43 6 5 4 8
M TOR 44 6 5 4 14
M TOR 45 6 7 8 18
M TOR 46 7 2 3 12
M TOR 47 7 2 3 13
M TOR 48 7 6 5 15
M TOR 49 7 6 5 16
M TOR 50 7 8 4 14
M TOR 51 8 2 3 12
M TOR 52 8 2 3 13
M TOR 53 8 4 3 12
M TOR 54 8 4 3 13
M TOR 55 8 4 5 15
M TOR 56 8 4 5 16
M  END
$$$$
