gdb 4243	3.3680597	1.6077155	1.420973	1.2832	73.12	-0.23111	0.08157	0.31268	976.1206	0.15943	-422.546343	-422.539459	-422.538515	-422.577328	28.302
 OpenBabel02181911413D

 19 21  0  0  1  0  0  0  0  0999 V2000
    0.3568   -0.4113   -0.3926 C   0  0  0  0  0  0  0  0  0  0  0  0
    0.8457    0.8272    0.3443 C   0  0  2  0  0  0  0  0  0  0  0  0
    2.2748    0.9571    0.1515 O   0  0  0  0  0  0  0  0  0  0  0  0
    2.8283    1.3076    1.4155 C   0  0  1  0  0  0  0  0  0  0  0  0
    2.2338    2.6616    1.8939 C   0  0  0  0  0  0  0  0  0  0  0  0
    1.0754    2.0350    2.6957 C   0  0  2  0  0  0  0  0  0  0  0  0
    1.8269    1.1826    3.6162 O   0  0  0  0  0  0  0  0  0  0  0  0
    2.0817    0.3859    2.4371 C   0  0  1  0  0  0  0  0  0  0  0  0
    0.6987    0.7616    1.8627 C   0  0  2  0  0  0  0  0  0  0  0  0
    0.7764   -1.3195    0.0511 H   0  0  0  0  0  0  0  0  0  0  0  0
   -0.7356   -0.4766   -0.3580 H   0  0  0  0  0  0  0  0  0  0  0  0
    0.6669   -0.3695   -1.4404 H   0  0  0  0  0  0  0  0  0  0  0  0
    0.3484    1.7173   -0.0698 H   0  0  0  0  0  0  0  0  0  0  0  0
    3.9125    1.2356    1.3506 H   0  0  0  0  0  0  0  0  0  0  0  0
    2.8900    3.2214    2.5631 H   0  0  0  0  0  0  0  0  0  0  0  0
    1.9430    3.2904    1.0493 H   0  0  0  0  0  0  0  0  0  0  0  0
    0.3392    2.6752    3.1808 H   0  0  0  0  0  0  0  0  0  0  0  0
    2.4450   -0.6229    2.6237 H   0  0  0  0  0  0  0  0  0  0  0  0
   -0.1529    0.2099    2.2566 H   0  0  0  0  0  0  0  0  0  0  0  0
  1 11  1  0  0  0  0
  1 10  1  0  0  0  0
  1  2  1  0  0  0  0
  2 13  1  6  0  0  0
  2  9  1  0  0  0  0
  3  2  1  0  0  0  0
  3  4  1  0  0  0  0
  4 14  1  1  0  0  0
  4  5  1  0  0  0  0
  4  8  1  0  0  0  0
  5 15  1  0  0  0  0
  5  6  1  0  0  0  0
  6 17  1  1  0  0  0
  6  7  1  0  0  0  0
  8 18  1  1  0  0  0
  8  7  1  0  0  0  0
  9 19  1  1  0  0  0
  9  8  1  0  0  0  0
  9  6  1  0  0  0  0
 12  1  1  0  0  0  0
 16  5  1  0  0  0  0
M TOR 0 0 1 2 3
M TOR 1 0 1 8 5
M TOR 2 0 1 8 7
M TOR 3 0 1 8 18
M TOR 4 1 2 3 4
M TOR 5 1 2 3 7
M TOR 6 1 2 3 13
M TOR 7 1 8 5 4
M TOR 8 1 8 5 6
M TOR 9 1 8 5 16
M TOR 10 1 8 7 3
M TOR 11 1 8 7 6
M TOR 12 1 8 7 17
M TOR 13 2 1 0 9
M TOR 14 2 1 0 10
M TOR 15 2 1 0 11
M TOR 16 2 1 8 5
M TOR 17 2 1 8 7
M TOR 18 2 1 8 18
M TOR 19 2 3 4 5
M TOR 20 2 3 4 14
M TOR 21 2 3 4 15
M TOR 22 2 3 7 6
M TOR 23 2 3 7 8
M TOR 24 2 3 7 17
M TOR 25 3 2 1 8
M TOR 26 3 2 1 12
M TOR 27 3 4 5 6
M TOR 28 3 4 5 8
M TOR 29 3 4 5 16
M TOR 30 3 7 6 5
M TOR 31 3 7 8 5
M TOR 32 3 7 8 18
M TOR 33 4 3 7 6
M TOR 34 4 3 7 8
M TOR 35 4 3 7 17
M TOR 36 4 5 6 7
M TOR 37 4 5 8 7
M TOR 38 4 5 8 18
M TOR 39 5 4 3 7
M TOR 40 5 4 3 13
M TOR 41 5 6 7 8
M TOR 42 5 6 7 17
M TOR 43 5 8 1 12
M TOR 44 5 8 7 17
M TOR 45 6 5 4 14
M TOR 46 6 5 4 15
M TOR 47 6 5 8 18
M TOR 48 6 7 3 13
M TOR 49 6 7 8 18
M TOR 50 7 3 4 14
M TOR 51 7 3 4 15
M TOR 52 7 6 5 16
M TOR 53 7 8 1 12
M TOR 54 7 8 5 16
M TOR 55 8 1 0 9
M TOR 56 8 1 0 10
M TOR 57 8 1 0 11
M TOR 58 8 5 4 14
M TOR 59 8 5 4 15
M TOR 60 8 7 3 13
M  END
$$$$
