
     RDKit          3D

 19 20  0  0  0  0  0  0  0  0999 V2000
   -4.2593   -0.4808    0.0230 C   0  0  0  0  0  0  0  0  0  0  0  0
   -2.7493   -0.4323    0.0114 C   0  0  0  0  0  0  0  0  0  0  0  0
   -1.9424   -1.1742   -1.0925 C   0  0  0  0  0  0  0  0  0  0  0  0
   -0.8040   -1.3136   -0.0314 C   0  0  0  0  0  0  0  0  0  0  0  0
   -1.9241   -1.2380    1.0554 C   0  0  0  0  0  0  0  0  0  0  0  0
   -0.0615   -0.0032    0.0013 C   0  0  0  0  0  0  0  0  0  0  0  0
    1.1384    0.1221   -0.0048 O   0  0  0  0  0  0  0  0  0  0  0  0
   -0.9869    1.2227    0.0451 C   0  0  0  0  0  0  0  0  0  0  0  0
   -2.3823    0.9458    0.0493 O   0  0  0  0  0  0  0  0  0  0  0  0
   -4.6487   -0.0029    0.9270 H   0  0  0  0  0  0  0  0  0  0  0  0
   -4.6640    0.0514   -0.8432 H   0  0  0  0  0  0  0  0  0  0  0  0
   -4.6108   -1.5159   -0.0057 H   0  0  0  0  0  0  0  0  0  0  0  0
   -2.3772   -2.1484   -1.3279 H   0  0  0  0  0  0  0  0  0  0  0  0
   -1.7343   -0.6302   -2.0175 H   0  0  0  0  0  0  0  0  0  0  0  0
   -0.1212   -2.1622   -0.0624 H   0  0  0  0  0  0  0  0  0  0  0  0
   -2.3552   -2.2247    1.2400 H   0  0  0  0  0  0  0  0  0  0  0  0
   -1.6999   -0.7497    2.0073 H   0  0  0  0  0  0  0  0  0  0  0  0
   -0.7281    1.8015    0.9414 H   0  0  0  0  0  0  0  0  0  0  0  0
   -0.7435    1.8528   -0.8203 H   0  0  0  0  0  0  0  0  0  0  0  0
  1  2  1  0
  2  3  1  0
  3  4  1  0
  4  5  1  0
  4  6  1  0
  6  7  2  0
  6  8  1  0
  8  9  1  0
  5  2  1  0
  9  2  1  0
  1 10  1  0
  1 11  1  0
  1 12  1  0
  3 13  1  0
  3 14  1  0
  4 15  1  0
  5 16  1  0
  5 17  1  0
  8 18  1  0
  8 19  1  0
M  END
$$$$
