
     RDKit          3D

 19 19  0  0  0  0  0  0  0  0999 V2000
   -0.3355   -2.1638    0.9588 C   0  0  0  0  0  0  0  0  0  0  0  0
   -0.9069   -1.0915    0.0376 C   0  0  0  0  0  0  0  0  0  0  0  0
   -2.3138   -0.4769    0.3352 C   0  0  0  0  0  0  0  0  0  0  0  0
   -1.7416    0.9600    0.2409 C   0  0  0  0  0  0  0  0  0  0  0  0
   -1.9370    1.9007    1.4225 C   0  0  0  0  0  0  0  0  0  0  0  0
   -1.2319    3.2337    1.3029 C   0  0  0  0  0  0  0  0  0  0  0  0
   -2.5693    1.5683    2.3979 O   0  0  0  0  0  0  0  0  0  0  0  0
   -0.3234    0.3229    0.1597 C   0  0  0  0  0  0  0  0  0  0  0  0
    0.7819    0.7709    0.2553 O   0  0  0  0  0  0  0  0  0  0  0  0
   -0.8749   -3.1082    0.8376 H   0  0  0  0  0  0  0  0  0  0  0  0
    0.7207   -2.3411    0.7357 H   0  0  0  0  0  0  0  0  0  0  0  0
   -0.4134   -1.8622    2.0081 H   0  0  0  0  0  0  0  0  0  0  0  0
   -0.8273   -1.4118   -1.0095 H   0  0  0  0  0  0  0  0  0  0  0  0
   -3.1018   -0.7240   -0.3764 H   0  0  0  0  0  0  0  0  0  0  0  0
   -2.6643   -0.6827    1.3487 H   0  0  0  0  0  0  0  0  0  0  0  0
   -1.9651    1.4891   -0.6924 H   0  0  0  0  0  0  0  0  0  0  0  0
   -1.3442    3.8039    2.2257 H   0  0  0  0  0  0  0  0  0  0  0  0
   -0.1718    3.0611    1.0831 H   0  0  0  0  0  0  0  0  0  0  0  0
   -1.6435    3.8056    0.4632 H   0  0  0  0  0  0  0  0  0  0  0  0
  1  2  1  0
  2  3  1  0
  3  4  1  0
  4  5  1  0
  5  6  1  0
  5  7  2  0
  4  8  1  0
  8  9  2  0
  8  2  1  0
  1 10  1  0
  1 11  1  0
  1 12  1  0
  2 13  1  0
  3 14  1  0
  3 15  1  0
  4 16  1  0
  6 17  1  0
  6 18  1  0
  6 19  1  0
M  END
$$$$
