gdb 647	3.2004874	1.0293711	0.8831591	2.1232	77.15	-0.26046	0.01489	0.27535000000000004	1376.6494	0.156138	-422.554613	-422.545598	-422.544654	-422.589916	32.559
 OpenBabel02181911403D

 19 20  0  0  0  0  0  0  0  0999 V2000
    1.6043    2.0623    1.3039 O   0  0  0  0  0  0  0  0  0  0  0  0
    0.5900    1.5479    1.7040 C   0  0  0  0  0  0  0  0  0  0  0  0
   -0.0933    0.5956    1.0140 O   0  0  0  0  0  0  0  0  0  0  0  0
    0.4670    0.2015   -0.2245 C   0  0  0  0  0  0  0  0  0  0  0  0
   -0.2418   -0.9146   -0.9166 C   0  0  0  0  0  0  0  0  0  0  0  0
    1.1256   -1.1425   -0.2982 C   0  0  0  0  0  0  0  0  0  0  0  0
   -0.0723    1.8788    2.9905 C   0  0  0  0  0  0  0  0  0  0  0  0
   -0.7880    0.8063    3.7953 C   0  0  0  0  0  0  0  0  0  0  0  0
   -1.5874    1.8665    3.1117 C   0  0  0  0  0  0  0  0  0  0  0  0
    0.8808    1.0291   -0.7862 H   0  0  0  0  0  0  0  0  0  0  0  0
   -1.0939   -1.3465   -0.4041 H   0  0  0  0  0  0  0  0  0  0  0  0
   -0.3339   -0.8729   -1.9959 H   0  0  0  0  0  0  0  0  0  0  0  0
    1.1618   -1.7224    0.6169 H   0  0  0  0  0  0  0  0  0  0  0  0
    1.9879   -1.2557   -0.9452 H   0  0  0  0  0  0  0  0  0  0  0  0
    0.4696    2.6398    3.5373 H   0  0  0  0  0  0  0  0  0  0  0  0
   -0.8047   -0.1910    3.3740 H   0  0  0  0  0  0  0  0  0  0  0  0
   -0.6737    0.8493    4.8723 H   0  0  0  0  0  0  0  0  0  0  0  0
   -2.1452    1.5885    2.2263 H   0  0  0  0  0  0  0  0  0  0  0  0
   -2.0334    2.6526    3.7100 H   0  0  0  0  0  0  0  0  0  0  0  0
  1  2  2  0  0  0  0
  2  7  1  0  0  0  0
  3  2  1  0  0  0  0
  4  3  1  0  0  0  0
  5 11  1  0  0  0  0
  5  6  1  0  0  0  0
  5  4  1  0  0  0  0
  6  4  1  0  0  0  0
  6 13  1  0  0  0  0
  7  9  1  0  0  0  0
  7 15  1  0  0  0  0
  7  8  1  0  0  0  0
  8 17  1  0  0  0  0
  9 19  1  0  0  0  0
  9  8  1  0  0  0  0
 10  4  1  0  0  0  0
 12  5  1  0  0  0  0
 14  6  1  0  0  0  0
 16  8  1  0  0  0  0
 18  9  1  0  0  0  0
M TOR 0 0 1 2 3
M TOR 1 0 1 6 7
M TOR 2 0 1 6 8
M TOR 3 0 1 6 14
M TOR 4 1 2 3 4
M TOR 5 1 2 3 5
M TOR 6 1 2 3 9
M TOR 7 1 6 7 8
M TOR 8 1 6 7 15
M TOR 9 1 6 7 16
M TOR 10 1 6 8 17
M TOR 11 1 6 8 18
M TOR 12 2 1 6 7
M TOR 13 2 1 6 8
M TOR 14 2 1 6 14
M TOR 15 2 3 4 5
M TOR 16 2 3 4 10
M TOR 17 2 3 4 11
M TOR 18 2 3 5 12
M TOR 19 2 3 5 13
M TOR 20 3 2 1 6
M TOR 21 3 4 5 12
M TOR 22 3 4 5 13
M TOR 23 3 5 4 10
M TOR 24 3 5 4 11
M TOR 25 4 5 3 9
M TOR 26 6 7 8 17
M TOR 27 6 7 8 18
M TOR 28 6 8 7 15
M TOR 29 6 8 7 16
M TOR 30 7 8 6 14
M  END
$$$$
