gdb 2605	2.5236517	1.7611822	1.2760488	3.0968	74.92	-0.22842	-0.01696	0.21146	1037.7602	0.156134	-422.566122	-422.557668	-422.556724	-422.598678	32.487
 OpenBabel02181911413D

 19 20  0  0  1  0  0  0  0  0999 V2000
   -0.8669   -1.9776    1.3609 C   0  0  0  0  0  0  0  0  0  0  0  0
   -0.9914   -1.1387    0.0900 C   0  0  2  0  0  0  0  0  0  0  0  0
    0.0069    0.0468    0.0572 C   0  0  0  0  0  0  0  0  0  0  0  0
    1.2030    0.0335    0.1412 O   0  0  0  0  0  0  0  0  0  0  0  0
   -0.9690    1.2267   -0.0572 C   0  0  1  0  0  0  0  0  0  0  0  0
   -1.9290    0.7346   -1.1610 C   0  0  0  0  0  0  0  0  0  0  0  0
   -2.2699   -0.2655   -0.0244 C   0  0  1  0  0  0  0  0  0  0  0  0
   -3.6256   -0.8876    0.1480 C   0  0  0  0  0  0  0  0  0  0  0  0
   -1.9559    0.8131    0.9418 O   0  0  0  0  0  0  0  0  0  0  0  0
   -1.5226   -2.8530    1.3309 H   0  0  0  0  0  0  0  0  0  0  0  0
    0.1632   -2.3272    1.4751 H   0  0  0  0  0  0  0  0  0  0  0  0
   -1.1221   -1.3780    2.2392 H   0  0  0  0  0  0  0  0  0  0  0  0
   -0.8412   -1.7660   -0.7970 H   0  0  0  0  0  0  0  0  0  0  0  0
   -0.5947    2.2430    0.0444 H   0  0  0  0  0  0  0  0  0  0  0  0
   -2.7378    1.4465   -1.3337 H   0  0  0  0  0  0  0  0  0  0  0  0
   -1.5178    0.3558   -2.1008 H   0  0  0  0  0  0  0  0  0  0  0  0
   -3.7023   -1.3948    1.1143 H   0  0  0  0  0  0  0  0  0  0  0  0
   -4.4080   -0.1257    0.0951 H   0  0  0  0  0  0  0  0  0  0  0  0
   -3.8044   -1.6268   -0.6399 H   0  0  0  0  0  0  0  0  0  0  0  0
  1 11  1  0  0  0  0
  1 12  1  0  0  0  0
  2 13  1  6  0  0  0
  2  1  1  0  0  0  0
  3  2  1  0  0  0  0
  3  4  2  0  0  0  0
  5 14  1  6  0  0  0
  5  3  1  0  0  0  0
  5  9  1  0  0  0  0
  6  5  1  0  0  0  0
  6  7  1  0  0  0  0
  7  2  1  0  0  0  0
  7  8  1  1  0  0  0
  7  9  1  0  0  0  0
  8 17  1  0  0  0  0
 10  1  1  0  0  0  0
 15  6  1  0  0  0  0
 16  6  1  0  0  0  0
 18  8  1  0  0  0  0
 19  8  1  0  0  0  0
M TOR 0 0 1 2 3
M TOR 1 0 1 2 4
M TOR 2 0 1 6 5
M TOR 3 0 1 6 7
M TOR 4 0 1 6 8
M TOR 5 1 2 4 5
M TOR 6 1 2 4 8
M TOR 7 1 2 4 13
M TOR 8 1 6 5 4
M TOR 9 1 6 5 14
M TOR 10 1 6 5 15
M TOR 11 1 6 7 16
M TOR 12 1 6 7 17
M TOR 13 1 6 7 18
M TOR 14 1 6 8 4
M TOR 15 2 1 0 9
M TOR 16 2 1 0 10
M TOR 17 2 1 0 11
M TOR 18 2 1 6 5
M TOR 19 2 1 6 7
M TOR 20 2 1 6 8
M TOR 21 2 4 5 6
M TOR 22 2 4 5 14
M TOR 23 2 4 5 15
M TOR 24 2 4 8 6
M TOR 25 3 2 1 6
M TOR 26 3 2 1 12
M TOR 27 3 2 4 5
M TOR 28 3 2 4 8
M TOR 29 3 2 4 13
M TOR 30 4 2 1 6
M TOR 31 4 2 1 12
M TOR 32 4 5 6 7
M TOR 33 4 5 6 8
M TOR 34 4 8 6 7
M TOR 35 5 6 1 12
M TOR 36 5 6 7 16
M TOR 37 5 6 7 17
M TOR 38 5 6 7 18
M TOR 39 6 1 0 9
M TOR 40 6 1 0 10
M TOR 41 6 1 0 11
M TOR 42 6 5 4 13
M TOR 43 6 8 4 13
M TOR 44 7 6 1 12
M TOR 45 7 6 5 14
M TOR 46 7 6 5 15
M TOR 47 8 4 5 14
M TOR 48 8 4 5 15
M TOR 49 8 6 1 12
M TOR 50 8 6 5 14
M TOR 51 8 6 5 15
M TOR 52 8 6 7 16
M TOR 53 8 6 7 17
M TOR 54 8 6 7 18
M  END
$$$$
