gdb 4458	2.4645675	1.8798728	1.4887672	0.9774	73.45	-0.22675	0.04775	0.2745	971.428	0.157333	-422.49362	-422.485826	-422.484882	-422.525541	30.615
 OpenBabel02181911413D

 19 21  0  0  1  0  0  0  0  0999 V2000
    2.0617   -0.2511   -1.4660 C   0  0  0  0  0  0  0  0  0  0  0  0
    1.5731    0.0165   -0.0425 C   0  0  1  0  0  0  0  0  0  0  0  0
    2.5660   -0.4890    1.0610 C   0  0  0  0  0  0  0  0  0  0  0  0
    2.4647    0.4193    2.1798 O   0  0  0  0  0  0  0  0  0  0  0  0
    2.1060    1.6547    1.6573 C   0  0  2  0  0  0  0  0  0  0  0  0
    0.6485    2.0093    1.4669 C   0  0  0  0  0  0  0  0  0  0  0  0
    1.4626    1.4922    0.3151 C   0  0  2  0  0  0  0  0  0  0  0  0
    2.2765    2.5133   -0.2952 O   0  0  0  0  0  0  0  0  0  0  0  0
    3.0366    2.6424    0.9461 C   0  0  0  0  0  0  0  0  0  0  0  0
    2.2672   -1.3160   -1.6132 H   0  0  0  0  0  0  0  0  0  0  0  0
    1.3114    0.0521   -2.2015 H   0  0  0  0  0  0  0  0  0  0  0  0
    2.9763    0.3114   -1.6716 H   0  0  0  0  0  0  0  0  0  0  0  0
    0.6012   -0.4662    0.1060 H   0  0  0  0  0  0  0  0  0  0  0  0
    2.3424   -1.4945    1.4290 H   0  0  0  0  0  0  0  0  0  0  0  0
    3.5939   -0.4854    0.6681 H   0  0  0  0  0  0  0  0  0  0  0  0
   -0.0464    1.3053    1.9106 H   0  0  0  0  0  0  0  0  0  0  0  0
    0.3356    3.0493    1.4729 H   0  0  0  0  0  0  0  0  0  0  0  0
    4.0560    2.2578    0.8294 H   0  0  0  0  0  0  0  0  0  0  0  0
    3.0662    3.6770    1.3056 H   0  0  0  0  0  0  0  0  0  0  0  0
  1  2  1  0  0  0  0
  2 13  1  1  0  0  0
  2  7  1  0  0  0  0
  2  3  1  0  0  0  0
  3 14  1  0  0  0  0
  3  4  1  0  0  0  0
  5  4  1  1  0  0  0
  6 17  1  0  0  0  0
  6  5  1  0  0  0  0
  6 16  1  0  0  0  0
  7  8  1  6  0  0  0
  7  6  1  0  0  0  0
  7  5  1  0  0  0  0
  8  9  1  0  0  0  0
  9 19  1  0  0  0  0
  9  5  1  0  0  0  0
 10  1  1  0  0  0  0
 11  1  1  0  0  0  0
 12  1  1  0  0  0  0
 15  3  1  0  0  0  0
 18  9  1  0  0  0  0
M TOR 0 0 1 2 3
M TOR 1 0 1 2 13
M TOR 2 0 1 2 14
M TOR 3 0 1 6 4
M TOR 4 0 1 6 5
M TOR 5 0 1 6 7
M TOR 6 1 2 3 4
M TOR 7 1 6 4 3
M TOR 8 1 6 4 5
M TOR 9 1 6 4 8
M TOR 10 1 6 5 15
M TOR 11 1 6 5 16
M TOR 12 1 6 7 8
M TOR 13 2 1 0 9
M TOR 14 2 1 0 10
M TOR 15 2 1 0 11
M TOR 16 2 1 6 4
M TOR 17 2 1 6 5
M TOR 18 2 1 6 7
M TOR 19 2 3 4 5
M TOR 20 2 3 4 6
M TOR 21 2 3 4 8
M TOR 22 3 2 1 6
M TOR 23 3 2 1 12
M TOR 24 3 4 5 6
M TOR 25 3 4 5 15
M TOR 26 3 4 5 16
M TOR 27 3 4 6 7
M TOR 28 3 4 8 7
M TOR 29 3 4 8 17
M TOR 30 3 4 8 18
M TOR 31 4 3 2 13
M TOR 32 4 3 2 14
M TOR 33 4 5 6 7
M TOR 34 4 6 1 12
M TOR 35 4 6 5 15
M TOR 36 4 6 5 16
M TOR 37 4 6 7 8
M TOR 38 5 4 8 7
M TOR 39 5 4 8 17
M TOR 40 5 4 8 18
M TOR 41 5 6 1 12
M TOR 42 5 6 4 8
M TOR 43 5 6 7 8
M TOR 44 6 1 0 9
M TOR 45 6 1 0 10
M TOR 46 6 1 0 11
M TOR 47 6 1 2 13
M TOR 48 6 1 2 14
M TOR 49 6 4 8 17
M TOR 50 6 4 8 18
M TOR 51 6 7 8 17
M TOR 52 6 7 8 18
M TOR 53 7 6 1 12
M TOR 54 7 6 5 15
M TOR 55 7 6 5 16
M TOR 56 8 4 5 15
M TOR 57 8 4 5 16
M  END
$$$$
