
     RDKit          3D

 19 20  0  0  0  0  0  0  0  0999 V2000
   -0.1037   -0.2146    0.0568 C   0  0  0  0  0  0  0  0  0  0  0  0
    1.3964   -0.0672    0.0166 C   0  0  0  0  0  0  0  0  0  0  0  0
    2.0598   -0.4230    1.2029 O   0  0  0  0  0  0  0  0  0  0  0  0
    2.1755   -0.3026   -1.2620 C   0  0  0  0  0  0  0  0  0  0  0  0
    1.4541   -0.5634   -2.4308 O   0  0  0  0  0  0  0  0  0  0  0  0
    1.4492    0.4930   -3.3872 C   0  0  0  0  0  0  0  0  0  0  0  0
    1.1058    1.8332   -2.7864 C   0  0  0  0  0  0  0  0  0  0  0  0
    1.3783    2.0955   -1.5089 C   0  0  0  0  0  0  0  0  0  0  0  0
    2.0886    1.0920   -0.6810 C   0  0  0  0  0  0  0  0  0  0  0  0
   -0.5206    0.3810    0.8750 H   0  0  0  0  0  0  0  0  0  0  0  0
   -0.5603    0.1005   -0.8817 H   0  0  0  0  0  0  0  0  0  0  0  0
   -0.3781   -1.2634    0.2252 H   0  0  0  0  0  0  0  0  0  0  0  0
    1.9155   -1.3656    1.3473 H   0  0  0  0  0  0  0  0  0  0  0  0
    3.1163   -0.8454   -1.1791 H   0  0  0  0  0  0  0  0  0  0  0  0
    2.4222    0.5464   -3.9052 H   0  0  0  0  0  0  0  0  0  0  0  0
    0.7048    0.2033   -4.1358 H   0  0  0  0  0  0  0  0  0  0  0  0
    0.6312    2.5653   -3.4329 H   0  0  0  0  0  0  0  0  0  0  0  0
    1.1162    3.0489   -1.0587 H   0  0  0  0  0  0  0  0  0  0  0  0
    2.9671    1.4454   -0.1481 H   0  0  0  0  0  0  0  0  0  0  0  0
  1  2  1  0
  2  3  1  0
  2  4  1  0
  4  5  1  0
  5  6  1  0
  6  7  1  0
  7  8  2  0
  8  9  1  0
  9  2  1  0
  9  4  1  0
  1 10  1  0
  1 11  1  0
  1 12  1  0
  3 13  1  0
  4 14  1  0
  6 15  1  0
  6 16  1  0
  7 17  1  0
  8 18  1  0
  9 19  1  0
M  END
$$$$
