
     RDKit          3D

 19 20  0  0  0  0  0  0  0  0999 V2000
    0.3786    0.2255   -0.1043 O   0  0  0  0  0  0  0  0  0  0  0  0
   -0.8134   -0.0499    0.6232 C   0  0  0  0  0  0  0  0  0  0  0  0
   -0.8381    0.5470    2.0516 C   0  0  0  0  0  0  0  0  0  0  0  0
   -2.2478    1.1369    2.2451 C   0  0  0  0  0  0  0  0  0  0  0  0
   -2.4484    2.3070    3.2410 C   0  0  0  0  0  0  0  0  0  0  0  0
   -3.3817    1.3460    3.9960 C   0  0  0  0  0  0  0  0  0  0  0  0
   -3.1264    0.2858    3.0545 O   0  0  0  0  0  0  0  0  0  0  0  0
   -2.7547    1.2739    0.8341 C   0  0  0  0  0  0  0  0  0  0  0  0
   -1.9843    0.6314   -0.0399 C   0  0  0  0  0  0  0  0  0  0  0  0
    1.0783   -0.3284    0.2554 H   0  0  0  0  0  0  0  0  0  0  0  0
   -0.9872   -1.1381    0.6466 H   0  0  0  0  0  0  0  0  0  0  0  0
   -0.6033   -0.1705    2.8418 H   0  0  0  0  0  0  0  0  0  0  0  0
   -0.0974    1.3532    2.0757 H   0  0  0  0  0  0  0  0  0  0  0  0
   -1.5449    2.5998    3.7791 H   0  0  0  0  0  0  0  0  0  0  0  0
   -2.9169    3.1986    2.8193 H   0  0  0  0  0  0  0  0  0  0  0  0
   -3.0735    1.0753    5.0133 H   0  0  0  0  0  0  0  0  0  0  0  0
   -4.4412    1.6307    4.0147 H   0  0  0  0  0  0  0  0  0  0  0  0
   -3.6785    1.7951    0.6073 H   0  0  0  0  0  0  0  0  0  0  0  0
   -2.1512    0.5507   -1.1080 H   0  0  0  0  0  0  0  0  0  0  0  0
  1  2  1  0
  2  3  1  0
  3  4  1  0
  4  5  1  0
  5  6  1  0
  6  7  1  0
  4  8  1  0
  8  9  2  0
  9  2  1  0
  7  4  1  0
  1 10  1  0
  2 11  1  0
  3 12  1  0
  3 13  1  0
  5 14  1  0
  5 15  1  0
  6 16  1  0
  6 17  1  0
  8 18  1  0
  9 19  1  0
M  END
$$$$
