gdb 1933	3.0185597	1.4295757	1.3341719	1.9227	74.5	-0.22552	0.07533	0.30085	1055.4621	0.155797	-422.523659	-422.515402	-422.514458	-422.555721	33.023
 OpenBabel02181911403D

 19 21  0  0  1  0  0  0  0  0999 V2000
   -0.0047    0.0745   -0.0559 C   0  0  0  0  0  0  0  0  0  0  0  0
    1.4755   -0.0193    0.1847 C   0  0  1  0  0  0  0  0  0  0  0  0
    2.1311   -1.2473    0.7646 C   0  0  0  0  0  0  0  0  0  0  0  0
    2.4774   -0.7872   -0.6420 C   0  0  2  0  0  0  0  0  0  0  0  0
    3.6389    0.1628   -0.8836 C   0  0  2  0  0  0  0  0  0  0  0  0
    4.1396    0.2303   -2.1828 O   0  0  0  0  0  0  0  0  0  0  0  0
    4.4916    0.6149    0.2844 C   0  0  0  0  0  0  0  0  0  0  0  0
    3.2721    1.4139   -0.1444 C   0  0  2  0  0  0  0  0  0  0  0  0
    2.0552    1.2317    0.5308 O   0  0  0  0  0  0  0  0  0  0  0  0
   -0.5203    0.4221    0.8456 H   0  0  0  0  0  0  0  0  0  0  0  0
   -0.2239    0.7774   -0.8658 H   0  0  0  0  0  0  0  0  0  0  0  0
   -0.4131   -0.9043   -0.3228 H   0  0  0  0  0  0  0  0  0  0  0  0
    2.8530   -1.1356    1.5648 H   0  0  0  0  0  0  0  0  0  0  0  0
    1.5182   -2.1399    0.8437 H   0  0  0  0  0  0  0  0  0  0  0  0
    2.1829   -1.3899   -1.4930 H   0  0  0  0  0  0  0  0  0  0  0  0
    4.8121   -0.4533   -2.2763 H   0  0  0  0  0  0  0  0  0  0  0  0
    4.4870    0.0730    1.2224 H   0  0  0  0  0  0  0  0  0  0  0  0
    5.4448    1.0603    0.0170 H   0  0  0  0  0  0  0  0  0  0  0  0
    3.4037    2.4103   -0.5518 H   0  0  0  0  0  0  0  0  0  0  0  0
  1 10  1  0  0  0  0
  2  1  1  6  0  0  0
  2  9  1  0  0  0  0
  2  3  1  0  0  0  0
  3 14  1  0  0  0  0
  3 13  1  0  0  0  0
  4 15  1  6  0  0  0
  4  2  1  0  0  0  0
  4  3  1  0  0  0  0
  5  6  1  6  0  0  0
  5  4  1  0  0  0  0
  5  8  1  0  0  0  0
  5  7  1  0  0  0  0
  7 17  1  0  0  0  0
  8 19  1  6  0  0  0
  8  7  1  0  0  0  0
  8  9  1  0  0  0  0
 11  1  1  0  0  0  0
 12  1  1  0  0  0  0
 16  6  1  0  0  0  0
 18  7  1  0  0  0  0
M TOR 0 0 1 2 3
M TOR 1 0 1 2 12
M TOR 2 0 1 2 13
M TOR 3 0 1 3 4
M TOR 4 0 1 3 14
M TOR 5 0 1 8 7
M TOR 6 1 2 3 4
M TOR 7 1 2 3 14
M TOR 8 1 3 2 12
M TOR 9 1 3 2 13
M TOR 10 1 3 4 5
M TOR 11 1 3 4 6
M TOR 12 1 3 4 7
M TOR 13 1 8 7 4
M TOR 14 1 8 7 6
M TOR 15 1 8 7 18
M TOR 16 2 1 0 9
M TOR 17 2 1 0 10
M TOR 18 2 1 0 11
M TOR 19 2 1 8 7
M TOR 20 2 3 1 8
M TOR 21 2 3 4 5
M TOR 22 2 3 4 6
M TOR 23 2 3 4 7
M TOR 24 3 1 0 9
M TOR 25 3 1 0 10
M TOR 26 3 1 0 11
M TOR 27 3 1 8 7
M TOR 28 3 4 5 15
M TOR 29 3 4 6 7
M TOR 30 3 4 6 16
M TOR 31 3 4 6 17
M TOR 32 3 4 7 8
M TOR 33 3 4 7 18
M TOR 34 4 3 1 8
M TOR 35 4 3 2 12
M TOR 36 4 3 2 13
M TOR 37 4 6 7 8
M TOR 38 4 6 7 18
M TOR 39 4 7 6 16
M TOR 40 4 7 6 17
M TOR 41 5 4 3 14
M TOR 42 5 4 6 7
M TOR 43 5 4 6 16
M TOR 44 5 4 6 17
M TOR 45 5 4 7 8
M TOR 46 5 4 7 18
M TOR 47 6 4 3 14
M TOR 48 6 4 5 15
M TOR 49 7 4 3 14
M TOR 50 7 4 5 15
M TOR 51 8 1 0 9
M TOR 52 8 1 0 10
M TOR 53 8 1 0 11
M TOR 54 8 1 2 12
M TOR 55 8 1 2 13
M TOR 56 8 1 3 14
M TOR 57 8 7 6 16
M TOR 58 8 7 6 17
M  END
$$$$
