
     RDKit          3D

 19 20  0  0  0  0  0  0  0  0999 V2000
   -2.7260    2.1375    3.6308 C   0  0  0  0  0  0  0  0  0  0  0  0
   -1.7308    1.9000    2.5205 C   0  0  0  0  0  0  0  0  0  0  0  0
   -1.1705    0.4484    2.3590 C   0  0  0  0  0  0  0  0  0  0  0  0
   -0.7290    0.4528    0.8640 C   0  0  0  0  0  0  0  0  0  0  0  0
    0.6223    0.1285    0.6178 O   0  0  0  0  0  0  0  0  0  0  0  0
   -1.1475    1.9114    0.4485 C   0  0  0  0  0  0  0  0  0  0  0  0
   -2.3356    2.0825    1.2210 O   0  0  0  0  0  0  0  0  0  0  0  0
   -0.1688    2.8551    1.1375 C   0  0  0  0  0  0  0  0  0  0  0  0
   -0.5237    2.8374    2.4233 C   0  0  0  0  0  0  0  0  0  0  0  0
   -3.5730    1.4518    3.5369 H   0  0  0  0  0  0  0  0  0  0  0  0
   -2.2582    1.9733    4.6065 H   0  0  0  0  0  0  0  0  0  0  0  0
   -3.1050    3.1627    3.5958 H   0  0  0  0  0  0  0  0  0  0  0  0
   -0.3363    0.2225    3.0282 H   0  0  0  0  0  0  0  0  0  0  0  0
   -1.9646   -0.2801    2.5418 H   0  0  0  0  0  0  0  0  0  0  0  0
   -1.3113   -0.2655    0.2835 H   0  0  0  0  0  0  0  0  0  0  0  0
    1.1615    0.7390    1.1338 H   0  0  0  0  0  0  0  0  0  0  0  0
   -1.3388    2.0606   -0.6130 H   0  0  0  0  0  0  0  0  0  0  0  0
    0.6751    3.3474    0.6734 H   0  0  0  0  0  0  0  0  0  0  0  0
   -0.0399    3.3085    3.2692 H   0  0  0  0  0  0  0  0  0  0  0  0
  1  2  1  0
  2  3  1  0
  3  4  1  0
  4  5  1  0
  4  6  1  0
  6  7  1  0
  6  8  1  0
  8  9  2  0
  7  2  1  0
  9  2  1  0
  1 10  1  0
  1 11  1  0
  1 12  1  0
  3 13  1  0
  3 14  1  0
  4 15  1  0
  5 16  1  0
  6 17  1  0
  8 18  1  0
  9 19  1  0
M  END
$$$$
