gdb 5455	2.6666579	1.5537922	1.2554004	1.8241	73.79	-0.23385	0.05952	0.29337	1060.9268	0.155792	-422.496441	-422.487828	-422.486884	-422.529812	32.558
 OpenBabel02181911423D

 19 21  0  0  1  0  0  0  0  0999 V2000
   -0.3590   -0.5770    3.7799 C   0  0  0  0  0  0  0  0  0  0  0  0
   -1.1882   -0.8431    2.5627 C   0  0  1  0  0  0  0  0  0  0  0  0
   -1.1507   -2.2365    2.1044 O   0  0  0  0  0  0  0  0  0  0  0  0
   -2.4548   -2.0090    1.5722 C   0  0  2  0  0  0  0  0  0  0  0  0
   -2.4734   -0.6096    0.9287 C   0  0  1  0  0  0  0  0  0  0  0  0
   -2.7603   -0.8229    2.4122 C   0  0  2  0  0  0  0  0  0  0  0  0
   -1.0867   -0.0353    1.2232 C   0  0  2  0  0  0  0  0  0  0  0  0
    0.0683   -0.3181    0.2746 C   0  0  0  0  0  0  0  0  0  0  0  0
    1.3045    0.2010    0.7587 O   0  0  0  0  0  0  0  0  0  0  0  0
   -0.6898   -1.1965    4.6184 H   0  0  0  0  0  0  0  0  0  0  0  0
    0.6945   -0.8050    3.5856 H   0  0  0  0  0  0  0  0  0  0  0  0
   -0.4292    0.4759    4.0679 H   0  0  0  0  0  0  0  0  0  0  0  0
   -3.0486   -2.8534    1.2489 H   0  0  0  0  0  0  0  0  0  0  0  0
   -3.1719   -0.3348    0.1485 H   0  0  0  0  0  0  0  0  0  0  0  0
   -3.5809   -0.5395    3.0562 H   0  0  0  0  0  0  0  0  0  0  0  0
   -1.1517    1.0359    1.4408 H   0  0  0  0  0  0  0  0  0  0  0  0
    0.1318   -1.3966    0.0853 H   0  0  0  0  0  0  0  0  0  0  0  0
   -0.1166    0.1785   -0.6854 H   0  0  0  0  0  0  0  0  0  0  0  0
    1.6540   -0.4281    1.3958 H   0  0  0  0  0  0  0  0  0  0  0  0
  1 12  1  0  0  0  0
  1 10  1  0  0  0  0
  2  1  1  1  0  0  0
  3  2  1  0  0  0  0
  4 13  1  6  0  0  0
  4  3  1  0  0  0  0
  4  6  1  0  0  0  0
  5 14  1  6  0  0  0
  5  7  1  0  0  0  0
  5  4  1  0  0  0  0
  5  6  1  0  0  0  0
  6  2  1  0  0  0  0
  6 15  1  1  0  0  0
  7 16  1  1  0  0  0
  7  2  1  0  0  0  0
  8  9  1  0  0  0  0
  8  7  1  0  0  0  0
  9 19  1  0  0  0  0
 11  1  1  0  0  0  0
 17  8  1  0  0  0  0
 18  8  1  0  0  0  0
M TOR 0 0 1 2 3
M TOR 1 0 1 5 3
M TOR 2 0 1 5 4
M TOR 3 0 1 5 14
M TOR 4 0 1 6 4
M TOR 5 0 1 6 7
M TOR 6 0 1 6 15
M TOR 7 1 2 3 4
M TOR 8 1 2 3 5
M TOR 9 1 2 3 12
M TOR 10 1 5 3 4
M TOR 11 1 5 3 12
M TOR 12 1 5 4 6
M TOR 13 1 5 4 13
M TOR 14 1 6 4 3
M TOR 15 1 6 4 13
M TOR 16 1 6 7 8
M TOR 17 1 6 7 16
M TOR 18 1 6 7 17
M TOR 19 2 1 0 9
M TOR 20 2 1 0 10
M TOR 21 2 1 0 11
M TOR 22 2 1 5 4
M TOR 23 2 1 5 14
M TOR 24 2 1 6 4
M TOR 25 2 1 6 7
M TOR 26 2 1 6 15
M TOR 27 2 3 4 5
M TOR 28 2 3 4 6
M TOR 29 2 3 4 13
M TOR 30 2 3 5 14
M TOR 31 3 2 1 6
M TOR 32 3 4 5 14
M TOR 33 3 4 6 7
M TOR 34 3 4 6 15
M TOR 35 3 5 1 6
M TOR 36 3 5 4 6
M TOR 37 3 5 4 13
M TOR 38 4 5 3 12
M TOR 39 4 6 7 8
M TOR 40 4 6 7 16
M TOR 41 4 6 7 17
M TOR 42 5 1 0 9
M TOR 43 5 1 0 10
M TOR 44 5 1 0 11
M TOR 45 5 1 6 7
M TOR 46 5 1 6 15
M TOR 47 5 4 6 7
M TOR 48 5 4 6 15
M TOR 49 6 1 0 9
M TOR 50 6 1 0 10
M TOR 51 6 1 0 11
M TOR 52 6 1 5 14
M TOR 53 6 4 3 12
M TOR 54 6 4 5 14
M TOR 55 6 7 8 18
M TOR 56 7 6 4 13
M TOR 57 8 7 6 15
M  END
$$$$
