gdb 5903	1.9081994	1.2618495	0.7959851	1.1202	78.77	-0.25325	0.03183	0.28508	1449.6881	0.153196	-422.482305	-422.472101	-422.471156	-422.518391	35.707
 OpenBabel02181911423D

 19 19  0  0  1  0  0  0  0  0999 V2000
    0.0756    0.7067   -0.0475 C   0  0  0  0  0  0  0  0  0  0  0  0
    1.1250   -0.3756    0.1357 C   0  0  0  0  0  0  0  0  0  0  0  0
    1.4913   -0.8472   -1.1583 O   0  0  0  0  0  0  0  0  0  0  0  0
    2.3687   -1.9588   -1.1506 C   0  0  1  0  0  0  0  0  0  0  0  0
    2.3450   -2.5716   -2.4793 C   0  0  0  0  0  0  0  0  0  0  0  0
    2.3686   -3.0824   -3.5658 C   0  0  0  0  0  0  0  0  0  0  0  0
    3.7941   -1.5598   -0.7888 C   0  0  2  0  0  0  0  0  0  0  0  0
    4.7109   -2.5079   -0.1507 C   0  0  0  0  0  0  0  0  0  0  0  0
    4.0895   -1.4652    0.6054 O   0  0  0  0  0  0  0  0  0  0  0  0
   -0.2405    1.0949    0.9255 H   0  0  0  0  0  0  0  0  0  0  0  0
    0.4774    1.5358   -0.6369 H   0  0  0  0  0  0  0  0  0  0  0  0
   -0.8006    0.3098   -0.5676 H   0  0  0  0  0  0  0  0  0  0  0  0
    2.0009    0.0138    0.6703 H   0  0  0  0  0  0  0  0  0  0  0  0
    0.7246   -1.2102    0.7337 H   0  0  0  0  0  0  0  0  0  0  0  0
    2.0346   -2.6974   -0.4011 H   0  0  0  0  0  0  0  0  0  0  0  0
    2.3724   -3.5346   -4.5269 H   0  0  0  0  0  0  0  0  0  0  0  0
    4.2001   -0.7547   -1.4006 H   0  0  0  0  0  0  0  0  0  0  0  0
    4.3689   -3.5168    0.0762 H   0  0  0  0  0  0  0  0  0  0  0  0
    5.7835   -2.4032   -0.3022 H   0  0  0  0  0  0  0  0  0  0  0  0
  1  2  1  0  0  0  0
  1 10  1  0  0  0  0
  2 13  1  0  0  0  0
  2 14  1  0  0  0  0
  3  4  1  0  0  0  0
  3  2  1  0  0  0  0
  4  7  1  0  0  0  0
  4 15  1  1  0  0  0
  5  4  1  0  0  0  0
  6  5  3  0  0  0  0
  7 17  1  6  0  0  0
  7  8  1  0  0  0  0
  7  9  1  0  0  0  0
  8 18  1  0  0  0  0
  8  9  1  0  0  0  0
 11  1  1  0  0  0  0
 12  1  1  0  0  0  0
 16  6  1  0  0  0  0
 19  8  1  0  0  0  0
M TOR 0 0 1 2 3
M TOR 1 1 2 3 4
M TOR 2 1 2 3 6
M TOR 3 1 2 3 14
M TOR 4 2 1 0 9
M TOR 5 2 1 0 10
M TOR 6 2 1 0 11
M TOR 7 2 3 4 5
M TOR 8 2 3 6 7
M TOR 9 2 3 6 8
M TOR 10 2 3 6 16
M TOR 11 3 2 1 12
M TOR 12 3 2 1 13
M TOR 13 3 4 5 15
M TOR 14 3 6 7 8
M TOR 15 3 6 7 17
M TOR 16 3 6 7 18
M TOR 17 4 3 6 7
M TOR 18 4 3 6 8
M TOR 19 4 3 6 16
M TOR 20 5 4 3 6
M TOR 21 5 4 3 14
M TOR 22 6 8 7 17
M TOR 23 6 8 7 18
M TOR 24 7 6 3 14
M TOR 25 7 8 6 16
M TOR 26 8 6 3 14
M  END
$$$$
