
     RDKit          3D

 19 21  0  0  0  0  0  0  0  0999 V2000
   -0.4454    0.0830    0.3653 C   0  0  0  0  0  0  0  0  0  0  0  0
    0.8324   -0.0339   -0.4740 C   0  0  0  0  0  0  0  0  0  0  0  0
    1.2935    0.8639   -1.4599 O   0  0  0  0  0  0  0  0  0  0  0  0
    2.0868    1.7895   -0.6726 C   0  0  0  0  0  0  0  0  0  0  0  0
    1.0994    2.1430    0.4391 C   0  0  0  0  0  0  0  0  0  0  0  0
    0.8433    0.6767    0.8399 C   0  0  0  0  0  0  0  0  0  0  0  0
    1.6976    0.2120    1.8366 O   0  0  0  0  0  0  0  0  0  0  0  0
    3.0365    0.6567    1.5078 C   0  0  0  0  0  0  0  0  0  0  0  0
    3.2867    1.0567    0.0161 C   0  0  0  0  0  0  0  0  0  0  0  0
   -1.2444    0.7691    0.1036 H   0  0  0  0  0  0  0  0  0  0  0  0
   -0.7768   -0.8664    0.7751 H   0  0  0  0  0  0  0  0  0  0  0  0
    1.2451   -1.0356   -0.5423 H   0  0  0  0  0  0  0  0  0  0  0  0
    2.4066    2.5893   -1.3442 H   0  0  0  0  0  0  0  0  0  0  0  0
    1.5095    2.7279    1.2648 H   0  0  0  0  0  0  0  0  0  0  0  0
    0.2152    2.6473    0.0445 H   0  0  0  0  0  0  0  0  0  0  0  0
    3.2674    1.5206    2.1445 H   0  0  0  0  0  0  0  0  0  0  0  0
    3.7153   -0.1503    1.7995 H   0  0  0  0  0  0  0  0  0  0  0  0
    4.1661    1.7097    0.0154 H   0  0  0  0  0  0  0  0  0  0  0  0
    3.5436    0.1840   -0.5908 H   0  0  0  0  0  0  0  0  0  0  0  0
  1  2  1  0
  2  3  1  0
  3  4  1  0
  4  5  1  0
  5  6  1  0
  6  7  1  0
  7  8  1  0
  8  9  1  0
  6  1  1  0
  6  2  1  0
  9  4  1  0
  1 10  1  0
  1 11  1  0
  2 12  1  0
  4 13  1  0
  5 14  1  0
  5 15  1  0
  8 16  1  0
  8 17  1  0
  9 18  1  0
  9 19  1  0
M  END
$$$$
