gdb 919	4.9044663	0.7763415	0.7417628	3.3028	77.58	-0.2493	-0.02489	0.22441	1550.0982	0.154834	-422.533776	-422.524648	-422.523704	-422.568966	32.534
 OpenBabel02181911403D

 19 20  0  0  1  0  0  0  0  0999 V2000
    0.3117   -1.2438    0.0585 O   0  0  0  0  0  0  0  0  0  0  0  0
    0.3896   -0.0518    0.2071 C   0  0  0  0  0  0  0  0  0  0  0  0
   -0.3796    0.7369    1.2516 C   0  0  0  0  0  0  0  0  0  0  0  0
   -1.1061    1.9134    0.6362 C   0  0  2  0  0  0  0  0  0  0  0  0
   -0.2785    3.0021    0.1847 O   0  0  0  0  0  0  0  0  0  0  0  0
   -1.1638    3.2377    1.2660 C   0  0  0  0  0  0  0  0  0  0  0  0
   -2.3108    4.2501    1.2501 C   0  0  0  0  0  0  0  0  0  0  0  0
   -2.1300    4.3805    2.7932 C   0  0  0  0  0  0  0  0  0  0  0  0
   -0.7527    3.6578    2.6803 C   0  0  0  0  0  0  0  0  0  0  0  0
    1.0537    0.5705   -0.4320 H   0  0  0  0  0  0  0  0  0  0  0  0
   -1.0752    0.0622    1.7602 H   0  0  0  0  0  0  0  0  0  0  0  0
    0.3466    1.1131    1.9836 H   0  0  0  0  0  0  0  0  0  0  0  0
   -1.9034    1.6509   -0.0620 H   0  0  0  0  0  0  0  0  0  0  0  0
   -2.0231    5.1618    0.7184 H   0  0  0  0  0  0  0  0  0  0  0  0
   -3.2793    3.9124    0.8739 H   0  0  0  0  0  0  0  0  0  0  0  0
   -2.1170    5.3927    3.1991 H   0  0  0  0  0  0  0  0  0  0  0  0
   -2.8620    3.7894    3.3476 H   0  0  0  0  0  0  0  0  0  0  0  0
    0.0874    4.3578    2.6574 H   0  0  0  0  0  0  0  0  0  0  0  0
   -0.5328    2.8688    3.4040 H   0  0  0  0  0  0  0  0  0  0  0  0
  1  2  2  0  0  0  0
  2  3  1  0  0  0  0
  3 11  1  0  0  0  0
  3 12  1  0  0  0  0
  4 13  1  6  0  0  0
  4  3  1  0  0  0  0
  4  6  1  0  0  0  0
  5  4  1  0  0  0  0
  5  6  1  0  0  0  0
  6  9  1  0  0  0  0
  7  6  1  0  0  0  0
  7  8  1  0  0  0  0
  8 16  1  0  0  0  0
  8 17  1  0  0  0  0
  9  8  1  0  0  0  0
  9 19  1  0  0  0  0
 10  2  1  0  0  0  0
 14  7  1  0  0  0  0
 15  7  1  0  0  0  0
 18  9  1  0  0  0  0
M TOR 0 0 1 2 3
M TOR 1 0 1 2 10
M TOR 2 0 1 2 11
M TOR 3 1 2 3 4
M TOR 4 1 2 3 5
M TOR 5 1 2 3 12
M TOR 6 2 3 4 5
M TOR 7 2 3 5 6
M TOR 8 2 3 5 8
M TOR 9 3 2 1 9
M TOR 10 3 4 5 6
M TOR 11 3 4 5 8
M TOR 12 3 5 6 7
M TOR 13 3 5 6 13
M TOR 14 3 5 6 14
M TOR 15 3 5 8 7
M TOR 16 3 5 8 17
M TOR 17 3 5 8 18
M TOR 18 4 3 2 10
M TOR 19 4 3 2 11
M TOR 20 4 5 3 12
M TOR 21 4 5 6 7
M TOR 22 4 5 6 13
M TOR 23 4 5 6 14
M TOR 24 4 5 8 7
M TOR 25 4 5 8 17
M TOR 26 4 5 8 18
M TOR 27 5 3 2 10
M TOR 28 5 3 2 11
M TOR 29 5 6 7 8
M TOR 30 5 6 7 15
M TOR 31 5 6 7 16
M TOR 32 5 8 7 15
M TOR 33 5 8 7 16
M TOR 34 6 5 3 12
M TOR 35 6 5 8 17
M TOR 36 6 5 8 18
M TOR 37 6 7 8 17
M TOR 38 6 7 8 18
M TOR 39 8 5 3 12
M TOR 40 8 5 6 13
M TOR 41 8 5 6 14
M TOR 42 8 7 6 13
M TOR 43 8 7 6 14
M  END
$$$$
