
     RDKit          3D

 19 21  0  0  0  0  0  0  0  0999 V2000
   -0.1521    0.2415   -0.1208 C   0  0  0  0  0  0  0  0  0  0  0  0
    1.3250    0.0463    0.1717 C   0  0  0  0  0  0  0  0  0  0  0  0
    1.8792    1.2997    0.5985 O   0  0  0  0  0  0  0  0  0  0  0  0
    2.5823    1.8183   -0.5517 C   0  0  0  0  0  0  0  0  0  0  0  0
    2.6706    0.8090   -1.5840 O   0  0  0  0  0  0  0  0  0  0  0  0
    2.3689   -0.3360   -0.8511 C   0  0  0  0  0  0  0  0  0  0  0  0
    1.7416   -1.7450   -0.9672 C   0  0  0  0  0  0  0  0  0  0  0  0
    1.8510   -1.3870    0.5875 C   0  0  0  0  0  0  0  0  0  0  0  0
    3.2818   -0.9006    0.2932 C   0  0  0  0  0  0  0  0  0  0  0  0
   -0.6166    0.7134    0.7503 H   0  0  0  0  0  0  0  0  0  0  0  0
   -0.3018    0.9090   -0.9766 H   0  0  0  0  0  0  0  0  0  0  0  0
   -0.6803   -0.6948   -0.3133 H   0  0  0  0  0  0  0  0  0  0  0  0
    2.0525    2.6787   -0.9759 H   0  0  0  0  0  0  0  0  0  0  0  0
    3.5884    2.1077   -0.2240 H   0  0  0  0  0  0  0  0  0  0  0  0
    0.7485   -1.8291   -1.4062 H   0  0  0  0  0  0  0  0  0  0  0  0
    2.3979   -2.5526   -1.2963 H   0  0  0  0  0  0  0  0  0  0  0  0
    1.5189   -2.0242    1.4053 H   0  0  0  0  0  0  0  0  0  0  0  0
    3.7031   -0.1792    0.9906 H   0  0  0  0  0  0  0  0  0  0  0  0
    4.0019   -1.6657   -0.0023 H   0  0  0  0  0  0  0  0  0  0  0  0
  1  2  1  0
  2  3  1  0
  3  4  1  0
  4  5  1  0
  5  6  1  0
  6  7  1  0
  7  8  1  0
  8  9  1  0
  6  2  1  0
  9  6  1  0
  8  2  1  0
  1 10  1  0
  1 11  1  0
  1 12  1  0
  4 13  1  0
  4 14  1  0
  7 15  1  0
  7 16  1  0
  8 17  1  0
  9 18  1  0
  9 19  1  0
M  END
$$$$
