gdb 1081	2.3604452	1.197152	0.9286675	1.9567	76.64	-0.25261	-0.03136	0.22125	1296.9504	0.153421	-422.573081	-422.563149	-422.562205	-422.60943	34.962
 OpenBabel02181911403D

 19 19  0  0  0  0  0  0  0  0999 V2000
   -3.3857    1.0141    0.0326 C   0  0  0  0  0  0  0  0  0  0  0  0
   -2.4145    2.1623   -0.1845 C   0  0  0  0  0  0  0  0  0  0  0  0
   -2.6825    3.0636   -0.9514 O   0  0  0  0  0  0  0  0  0  0  0  0
   -1.1340    2.1866    0.6121 C   0  0  0  0  0  0  0  0  0  0  0  0
   -0.6807    0.9506    1.3766 C   0  0  0  0  0  0  0  0  0  0  0  0
   -0.0398   -0.0986    0.4830 C   0  0  0  0  0  0  0  0  0  0  0  0
    0.9292   -0.7443    0.7846 O   0  0  0  0  0  0  0  0  0  0  0  0
   -0.0518    3.1080    0.0625 C   0  0  0  0  0  0  0  0  0  0  0  0
   -0.8471    3.5561    1.2386 C   0  0  0  0  0  0  0  0  0  0  0  0
   -2.9326    0.0503   -0.2224 H   0  0  0  0  0  0  0  0  0  0  0  0
   -3.6879    0.9568    1.0847 H   0  0  0  0  0  0  0  0  0  0  0  0
   -4.2659    1.1759   -0.5899 H   0  0  0  0  0  0  0  0  0  0  0  0
    0.0494    1.2088    2.1489 H   0  0  0  0  0  0  0  0  0  0  0  0
   -1.5257    0.4762    1.8936 H   0  0  0  0  0  0  0  0  0  0  0  0
   -0.5339   -0.2407   -0.5067 H   0  0  0  0  0  0  0  0  0  0  0  0
    0.9757    2.7974    0.2188 H   0  0  0  0  0  0  0  0  0  0  0  0
   -0.2687    3.5705   -0.8924 H   0  0  0  0  0  0  0  0  0  0  0  0
   -0.3862    3.5571    2.2202 H   0  0  0  0  0  0  0  0  0  0  0  0
   -1.5976    4.3201    1.0733 H   0  0  0  0  0  0  0  0  0  0  0  0
  1 11  1  0  0  0  0
  2  1  1  0  0  0  0
  2  4  1  0  0  0  0
  3  2  2  0  0  0  0
  4  9  1  0  0  0  0
  4  5  1  0  0  0  0
  5 14  1  0  0  0  0
  5 13  1  0  0  0  0
  6  7  2  0  0  0  0
  6  5  1  0  0  0  0
  8 16  1  0  0  0  0
  8  4  1  0  0  0  0
  8  9  1  0  0  0  0
  9 18  1  0  0  0  0
 10  1  1  0  0  0  0
 12  1  1  0  0  0  0
 15  6  1  0  0  0  0
 17  8  1  0  0  0  0
 19  9  1  0  0  0  0
M TOR 0 0 1 3 4
M TOR 1 0 1 3 7
M TOR 2 0 1 3 8
M TOR 3 1 3 4 5
M TOR 4 1 3 4 12
M TOR 5 1 3 4 13
M TOR 6 1 3 7 8
M TOR 7 1 3 7 15
M TOR 8 1 3 7 16
M TOR 9 1 3 8 17
M TOR 10 1 3 8 18
M TOR 11 2 1 0 9
M TOR 12 2 1 0 10
M TOR 13 2 1 0 11
M TOR 14 2 1 3 4
M TOR 15 2 1 3 7
M TOR 16 2 1 3 8
M TOR 17 3 1 0 9
M TOR 18 3 1 0 10
M TOR 19 3 1 0 11
M TOR 20 3 4 5 6
M TOR 21 3 4 5 14
M TOR 22 3 7 8 17
M TOR 23 3 7 8 18
M TOR 24 3 8 7 15
M TOR 25 3 8 7 16
M TOR 26 4 3 7 8
M TOR 27 4 3 7 15
M TOR 28 4 3 7 16
M TOR 29 4 3 8 17
M TOR 30 4 3 8 18
M TOR 31 5 4 3 7
M TOR 32 5 4 3 8
M TOR 33 6 5 4 12
M TOR 34 6 5 4 13
M TOR 35 7 3 4 12
M TOR 36 7 3 4 13
M TOR 37 8 3 4 12
M TOR 38 8 3 4 13
M  END
$$$$
