gdb 5472	3.1380499	1.2658551	1.0507027	2.9037	74.9	-0.22684	0.0693	0.29614	1193.8236	0.15528	-422.470159	-422.461639	-422.460695	-422.503291	32.409
 OpenBabel02181911423D

 19 21  0  0  1  0  0  0  0  0999 V2000
    5.1576   -2.8503    0.0478 C   0  0  0  0  0  0  0  0  0  0  0  0
    5.3570   -2.1375   -1.2944 C   0  0  0  0  0  0  0  0  0  0  0  0
    4.7923   -0.7225   -1.3129 C   0  0  2  0  0  0  0  0  0  0  0  0
    3.2695   -0.5077   -1.4954 C   0  0  2  0  0  0  0  0  0  0  0  0
    3.3348   -0.6798   -3.0479 C   0  0  1  0  0  0  0  0  0  0  0  0
    2.6179    0.5560   -3.3314 O   0  0  0  0  0  0  0  0  0  0  0  0
    3.4498    0.8792   -2.1806 C   0  0  2  0  0  0  0  0  0  0  0  0
    4.6774    0.0183   -2.6697 C   0  0  1  0  0  0  0  0  0  0  0  0
    5.6601    0.3308   -3.5784 O   0  0  0  0  0  0  0  0  0  0  0  0
    5.5883   -3.8562    0.0317 H   0  0  0  0  0  0  0  0  0  0  0  0
    5.6356   -2.2966    0.8636 H   0  0  0  0  0  0  0  0  0  0  0  0
    4.0946   -2.9466    0.2936 H   0  0  0  0  0  0  0  0  0  0  0  0
    6.4283   -2.0936   -1.5299 H   0  0  0  0  0  0  0  0  0  0  0  0
    4.8966   -2.7272   -2.0973 H   0  0  0  0  0  0  0  0  0  0  0  0
    5.2288   -0.1165   -0.5070 H   0  0  0  0  0  0  0  0  0  0  0  0
    2.4407   -0.7953   -0.8536 H   0  0  0  0  0  0  0  0  0  0  0  0
    3.1431   -1.5497   -3.6736 H   0  0  0  0  0  0  0  0  0  0  0  0
    3.4027    1.8814   -1.7548 H   0  0  0  0  0  0  0  0  0  0  0  0
    6.3010    0.9136   -3.1563 H   0  0  0  0  0  0  0  0  0  0  0  0
  1 12  1  0  0  0  0
  1 11  1  0  0  0  0
  2  1  1  0  0  0  0
  3  2  1  0  0  0  0
  3 15  1  1  0  0  0
  4  3  1  0  0  0  0
  4 16  1  1  0  0  0
  5 17  1  6  0  0  0
  5  8  1  0  0  0  0
  5  4  1  0  0  0  0
  6  5  1  0  0  0  0
  6  7  1  0  0  0  0
  7 18  1  1  0  0  0
  7  4  1  0  0  0  0
  8  9  1  6  0  0  0
  8  7  1  0  0  0  0
  8  3  1  0  0  0  0
  9 19  1  0  0  0  0
 10  1  1  0  0  0  0
 13  2  1  0  0  0  0
 14  2  1  0  0  0  0
M TOR 0 0 1 2 3
M TOR 1 0 1 2 7
M TOR 2 0 1 2 14
M TOR 3 1 2 3 4
M TOR 4 1 2 3 6
M TOR 5 1 2 3 15
M TOR 6 1 2 7 4
M TOR 7 1 2 7 6
M TOR 8 1 2 7 8
M TOR 9 2 1 0 9
M TOR 10 2 1 0 10
M TOR 11 2 1 0 11
M TOR 12 2 3 4 5
M TOR 13 2 3 4 7
M TOR 14 2 3 4 16
M TOR 15 2 3 6 5
M TOR 16 2 3 6 7
M TOR 17 2 3 6 17
M TOR 18 2 7 4 5
M TOR 19 2 7 4 16
M TOR 20 2 7 6 5
M TOR 21 2 7 6 17
M TOR 22 2 7 8 18
M TOR 23 3 2 1 12
M TOR 24 3 2 1 13
M TOR 25 3 2 7 8
M TOR 26 3 4 5 6
M TOR 27 3 4 7 6
M TOR 28 3 4 7 8
M TOR 29 3 6 7 8
M TOR 30 4 3 2 14
M TOR 31 4 3 6 17
M TOR 32 4 5 6 7
M TOR 33 4 5 6 17
M TOR 34 4 7 2 14
M TOR 35 4 7 6 17
M TOR 36 4 7 8 18
M TOR 37 5 4 3 15
M TOR 38 5 4 7 8
M TOR 39 5 6 3 15
M TOR 40 5 6 7 8
M TOR 41 6 3 2 14
M TOR 42 6 3 4 16
M TOR 43 6 5 4 16
M TOR 44 6 7 2 14
M TOR 45 6 7 4 16
M TOR 46 6 7 8 18
M TOR 47 7 2 1 12
M TOR 48 7 2 1 13
M TOR 49 7 2 3 15
M TOR 50 7 4 3 15
M TOR 51 7 6 3 15
M TOR 52 8 7 2 14
M TOR 53 8 7 4 16
M TOR 54 8 7 6 17
M  END
$$$$
