
     RDKit          3D

 19 18  0  0  0  0  0  0  0  0999 V2000
    1.4903   -0.0194   -0.0925 C   0  0  0  0  0  0  0  0  0  0  0  0
    0.0352   -0.0211   -0.0616 C   0  0  0  0  0  0  0  0  0  0  0  0
   -1.1701   -0.0253   -0.0435 C   0  0  0  0  0  0  0  0  0  0  0  0
   -2.6373   -0.0241   -0.0039 C   0  0  0  0  0  0  0  0  0  0  0  0
   -3.2279    0.8457   -1.1199 C   0  0  0  0  0  0  0  0  0  0  0  0
   -3.1100    0.3920    1.2817 O   0  0  0  0  0  0  0  0  0  0  0  0
   -3.0962   -1.5077   -0.1671 C   0  0  0  0  0  0  0  0  0  0  0  0
   -3.0804   -2.3532    1.0861 C   0  0  0  0  0  0  0  0  0  0  0  0
   -3.4236   -1.9306   -1.2476 O   0  0  0  0  0  0  0  0  0  0  0  0
    1.9085   -0.0676    0.9188 H   0  0  0  0  0  0  0  0  0  0  0  0
    1.8708   -0.8816   -0.6507 H   0  0  0  0  0  0  0  0  0  0  0  0
    1.8781    0.8854   -0.5726 H   0  0  0  0  0  0  0  0  0  0  0  0
   -2.9616    0.4420   -2.0976 H   0  0  0  0  0  0  0  0  0  0  0  0
   -4.3169    0.8594   -1.0289 H   0  0  0  0  0  0  0  0  0  0  0  0
   -2.8488    1.8681   -1.0376 H   0  0  0  0  0  0  0  0  0  0  0  0
   -2.6151    1.1800    1.5298 H   0  0  0  0  0  0  0  0  0  0  0  0
   -3.2435   -3.3979    0.8193 H   0  0  0  0  0  0  0  0  0  0  0  0
   -2.1334   -2.2321    1.6193 H   0  0  0  0  0  0  0  0  0  0  0  0
   -3.8675   -2.0120    1.7650 H   0  0  0  0  0  0  0  0  0  0  0  0
  1  2  1  0
  2  3  3  0
  3  4  1  0
  4  5  1  0
  4  6  1  0
  4  7  1  0
  7  8  1  0
  7  9  2  0
  1 10  1  0
  1 11  1  0
  1 12  1  0
  5 13  1  0
  5 14  1  0
  5 15  1  0
  6 16  1  0
  8 17  1  0
  8 18  1  0
  8 19  1  0
M  END
$$$$
