
     RDKit          3D

 19 20  0  0  0  0  0  0  0  0999 V2000
   -3.4281    2.2713   -1.8370 C   0  0  0  0  0  0  0  0  0  0  0  0
   -2.6646    2.1558   -0.5172 C   0  0  0  0  0  0  0  0  0  0  0  0
   -2.0625    3.4361   -0.3230 O   0  0  0  0  0  0  0  0  0  0  0  0
   -3.5773    1.7594    0.6409 C   0  0  0  0  0  0  0  0  0  0  0  0
   -3.2975    0.5496    1.1306 C   0  0  0  0  0  0  0  0  0  0  0  0
   -2.1074   -0.0503    0.4614 C   0  0  0  0  0  0  0  0  0  0  0  0
   -0.8190    0.7374    0.6731 C   0  0  0  0  0  0  0  0  0  0  0  0
    0.4078    0.1299    0.4128 O   0  0  0  0  0  0  0  0  0  0  0  0
   -1.6560    0.9965   -0.5437 C   0  0  0  0  0  0  0  0  0  0  0  0
   -3.9074    1.3219   -2.0892 H   0  0  0  0  0  0  0  0  0  0  0  0
   -4.1970    3.0456   -1.7630 H   0  0  0  0  0  0  0  0  0  0  0  0
   -2.7389    2.5488   -2.6406 H   0  0  0  0  0  0  0  0  0  0  0  0
   -1.4992    3.3785    0.4562 H   0  0  0  0  0  0  0  0  0  0  0  0
   -4.3511    2.4322    0.9934 H   0  0  0  0  0  0  0  0  0  0  0  0
   -3.8192    0.0633    1.9480 H   0  0  0  0  0  0  0  0  0  0  0  0
   -2.0321   -1.1133    0.2635 H   0  0  0  0  0  0  0  0  0  0  0  0
   -0.8209    1.4615    1.4913 H   0  0  0  0  0  0  0  0  0  0  0  0
    0.6395   -0.4128    1.1740 H   0  0  0  0  0  0  0  0  0  0  0  0
   -1.2130    0.7020   -1.4876 H   0  0  0  0  0  0  0  0  0  0  0  0
  1  2  1  0
  2  3  1  0
  2  4  1  0
  4  5  2  0
  5  6  1  0
  6  7  1  0
  7  8  1  0
  7  9  1  0
  9  2  1  0
  9  6  1  0
  1 10  1  0
  1 11  1  0
  1 12  1  0
  3 13  1  0
  4 14  1  0
  5 15  1  0
  6 16  1  0
  7 17  1  0
  8 18  1  0
  9 19  1  0
M  END
$$$$
